@<TRIPOS>MOLECULE
*****
 31 32 0 0 0
SMALL
GASTEIGER

@<TRIPOS>ATOM
      1 C           3.0742   -0.9524   -1.0053 C.3     1  LIG1       -0.0634
      2 C           2.5454   -0.1125    0.1521 C.3     1  LIG1       -0.0347
      3 C           3.3165    1.2097    0.3569 C.3     1  LIG1        0.0403
      4 C           2.7013    2.0011    1.5317 C.3     1  LIG1       -0.0347
      5 C           3.3883    3.3364    1.7963 C.3     1  LIG1       -0.0634
      6 N           4.7362    0.9769    0.5579 N.ar    1  LIG1       -0.2725
      7 C           5.7319    1.4808   -0.2837 C.ar    1  LIG1        0.1819
      8 N           5.5888    2.2173   -1.3931 N.ar    1  LIG1       -0.2160
      9 C           6.7785    2.5490   -1.9543 C.ar    1  LIG1        0.1337
     10 C           8.0202    2.1607   -1.4243 C.ar    1  LIG1        0.0639
     11 N           8.1516    1.4109   -0.2925 N.ar    1  LIG1       -0.2318
     12 C           6.9673    1.0947    0.2427 C.ar    1  LIG1        0.1781
     13 N           6.7384    0.3628    1.3931 N.ar    1  LIG1       -0.2895
     14 C           5.3585    0.2853    1.6109 C.ar    1  LIG1        0.3301
     15 O           4.8288   -0.2761    2.5545 O.2     1  LIG1       -0.2464
     16 C           6.6778    3.3324   -3.1401 C.1     1  LIG1       -0.0482
     17 C           6.5624    3.9938   -4.1412 C.1     1  LIG1       -0.1124
     18 H           2.4449   -1.8376   -1.1452 H       1  LIG1        0.0230
     19 H           4.0929   -1.3027   -0.8118 H       1  LIG1        0.0230
     20 H           3.0749   -0.3852   -1.9412 H       1  LIG1        0.0230
     21 H           2.5765   -0.7184    1.0652 H       1  LIG1        0.0283
     22 H           1.4889    0.1134   -0.0394 H       1  LIG1        0.0283
     23 H           3.1889    1.8117   -0.5525 H       1  LIG1        0.0529
     24 H           2.7347    1.4032    2.4500 H       1  LIG1        0.0283
     25 H           1.6418    2.1951    1.3228 H       1  LIG1        0.0283
     26 H           4.4560    3.2139    2.0024 H       1  LIG1        0.0230
     27 H           2.9411    3.8195    2.6712 H       1  LIG1        0.0230
     28 H           3.2767    4.0112    0.9422 H       1  LIG1        0.0230
     29 H           8.9525    2.4471   -1.9022 H       1  LIG1        0.0859
     30 H           7.4470   -0.0280    1.9887 H       1  LIG1        0.1719
     31 H           6.4269    4.5752   -5.0244 H       1  LIG1        0.1232
@<TRIPOS>BOND
     1     1     2    1
     2     1    18    1
     3     1    19    1
     4     1    20    1
     5     2     3    1
     6     2    21    1
     7     2    22    1
     8     3     4    1
     9     3     6    1
    10     3    23    1
    11     4     5    1
    12     4    24    1
    13     4    25    1
    14     5    26    1
    15     5    27    1
    16     5    28    1
    17     6     7   ar
    18     6    14   ar
    19     7     8   ar
    20     7    12   ar
    21     8     9   ar
    22     9    10   ar
    23     9    16    1
    24    10    11   ar
    25    10    29    1
    26    11    12   ar
    27    12    13   ar
    28    13    14   ar
    29    13    30    1
    30    14    15    2
    31    16    17    3
    32    17    31    1
