@<TRIPOS>MOLECULE
*****
 42 43 0 0 0
SMALL
GASTEIGER

@<TRIPOS>ATOM
      1 C           1.0942    2.0507    3.1754 C.3     1  LIG1       -0.0384
      2 C           2.6302    2.0854    3.1100 C.3     1  LIG1        0.1273
      3 C           3.1514    3.0892    4.1488 C.3     1  LIG1       -0.0384
      4 C           3.1509    0.7424    3.4106 C.1     1  LIG1        0.0781
      5 N           3.5823   -0.3076    3.6728 N.1     1  LIG1       -0.1955
      6 C           3.0778    2.4942    1.6970 C.2     1  LIG1        0.2328
      7 O           2.2722    2.7877    0.8135 O.2     1  LIG1       -0.2741
      8 N           4.4372    2.5569    1.4682 N.am    1  LIG1       -0.3099
      9 C           4.9400    2.9190    0.1585 C.3     1  LIG1        0.0369
     10 C           6.4378    2.8038    0.0947 C.ar    1  LIG1       -0.0302
     11 C           7.0577    1.6120   -0.3005 C.ar    1  LIG1       -0.0553
     12 C           8.4559    1.4972   -0.2921 C.ar    1  LIG1       -0.0403
     13 C           9.2678    2.5590    0.1313 C.ar    1  LIG1        0.0302
     14 C           8.6325    3.7559    0.4900 C.ar    1  LIG1       -0.0403
     15 C           7.2414    3.8796    0.4771 C.ar    1  LIG1       -0.0553
     16 N          10.6660    2.3873    0.2023 N.pl3   1  LIG1       -0.3196
     17 C          11.3452    3.1919    1.2339 C.3     1  LIG1        0.0283
     18 C          12.8009    2.7431    1.3430 C.3     1  LIG1        0.0274
     19 N          13.4817    2.8260    0.0692 N.am    1  LIG1       -0.3125
     20 C          12.8504    2.5065   -1.1091 C.2     1  LIG1        0.2304
     21 O          13.5292    2.3374   -2.1228 O.2     1  LIG1       -0.2741
     22 C          11.3052    2.4869   -1.1412 C.3     1  LIG1        0.0885
     23 H           0.7385    1.7513    4.1682 H       1  LIG1        0.0249
     24 H           0.6811    1.3376    2.4512 H       1  LIG1        0.0249
     25 H           0.6644    3.0334    2.9472 H       1  LIG1        0.0249
     26 H           2.8438    2.8063    5.1633 H       1  LIG1        0.0249
     27 H           2.7689    4.0973    3.9516 H       1  LIG1        0.0249
     28 H           4.2458    3.1499    4.1517 H       1  LIG1        0.0249
     29 H           5.1025    2.2136    2.1513 H       1  LIG1        0.1491
     30 H           4.6249    3.9485   -0.0515 H       1  LIG1        0.0512
     31 H           4.4675    2.2812   -0.5971 H       1  LIG1        0.0512
     32 H           6.4570    0.7575   -0.6072 H       1  LIG1        0.0621
     33 H           8.9076    0.5509   -0.5832 H       1  LIG1        0.0636
     34 H           9.2085    4.6268    0.7841 H       1  LIG1        0.0636
     35 H           6.7957    4.8261    0.7739 H       1  LIG1        0.0621
     36 H          10.8582    3.0606    2.2078 H       1  LIG1        0.0479
     37 H          11.3270    4.2563    0.9689 H       1  LIG1        0.0479
     38 H          12.8633    1.7030    1.6799 H       1  LIG1        0.0477
     39 H          13.3426    3.3740    2.0547 H       1  LIG1        0.0477
     40 H          14.4916    2.7683    0.0335 H       1  LIG1        0.1488
     41 H          11.0081    1.6295   -1.7561 H       1  LIG1        0.0559
     42 H          10.9938    3.4142   -1.6389 H       1  LIG1        0.0559
@<TRIPOS>BOND
     1     1     2    1
     2     1    23    1
     3     1    24    1
     4     1    25    1
     5     2     3    1
     6     2     4    1
     7     2     6    1
     8     3    26    1
     9     3    27    1
    10     3    28    1
    11     4     5    3
    12     6     7    2
    13     6     8   am
    14     8     9    1
    15     8    29    1
    16     9    10    1
    17     9    30    1
    18     9    31    1
    19    10    11   ar
    20    10    15   ar
    21    11    12   ar
    22    11    32    1
    23    12    13   ar
    24    12    33    1
    25    13    14   ar
    26    13    16    1
    27    14    15   ar
    28    14    34    1
    29    15    35    1
    30    16    17    1
    31    16    22    1
    32    17    18    1
    33    17    36    1
    34    17    37    1
    35    18    19    1
    36    18    38    1
    37    18    39    1
    38    19    20   am
    39    19    40    1
    40    20    21    2
    41    20    22    1
    42    22    41    1
    43    22    42    1
