@<TRIPOS>MOLECULE
*****
 46 47 0 0 0
SMALL
GASTEIGER

@<TRIPOS>ATOM
      1 C           6.2228   -0.9212    3.8175 C.3     1  LIG1       -0.0483
      2 C           6.6625   -0.9170    2.3529 C.3     1  LIG1        0.0232
      3 C           7.8327   -1.8758    2.1725 C.3     1  LIG1       -0.0483
      4 N           5.4995   -1.3077    1.5349 N.3     1  LIG1       -0.1874
      5 S           5.6137   -1.3983   -0.1416 S.O2    1  LIG1        0.0586
      6 O           4.2685   -1.2641   -0.6454 O.2     1  LIG1       -0.1530
      7 O           6.6835   -0.5159   -0.5706 O.2     1  LIG1       -0.1530
      8 C           6.1033   -3.0859   -0.4030 C.ar    1  LIG1        0.1056
      9 C           7.3156   -3.3620   -1.0375 C.ar    1  LIG1       -0.0353
     10 C           7.6886   -4.6880   -1.2406 C.ar    1  LIG1       -0.0596
     11 C           6.8535   -5.7279   -0.8132 C.ar    1  LIG1       -0.0570
     12 C           5.6354   -5.4609   -0.1622 C.ar    1  LIG1       -0.0284
     13 C           5.2645   -4.1216    0.0354 C.ar    1  LIG1       -0.0307
     14 C           4.7682   -6.5919    0.3542 C.3     1  LIG1        0.0384
     15 N           5.1437   -6.9553    1.7101 N.am    1  LIG1       -0.2951
     16 C           4.5684   -8.0204    2.3604 C.2     1  LIG1        0.3026
     17 O           3.6877   -8.7049    1.8476 O.2     1  LIG1       -0.2526
     18 N           5.0684   -8.2643    3.6389 N.am    1  LIG1       -0.2813
     19 C           6.1379   -7.4826    4.2712 C.3     1  LIG1        0.0396
     20 C           6.1705   -7.6505    5.7916 C.3     1  LIG1        0.0635
     21 O           6.2496   -9.0359    6.1424 O.3     1  LIG1       -0.3767
     22 C           5.0666   -9.7138    5.6990 C.3     1  LIG1        0.0635
     23 C           4.8868   -9.6180    4.1783 C.3     1  LIG1        0.0396
     24 H           7.0612   -0.6819    4.4803 H       1  LIG1        0.0245
     25 H           5.8248   -1.8997    4.1096 H       1  LIG1        0.0245
     26 H           5.4361   -0.1789    3.9906 H       1  LIG1        0.0245
     27 H           6.9641    0.1042    2.0929 H       1  LIG1        0.0472
     28 H           7.5152   -2.9184    2.2806 H       1  LIG1        0.0245
     29 H           8.6187   -1.6826    2.9098 H       1  LIG1        0.0245
     30 H           8.2915   -1.7601    1.1868 H       1  LIG1        0.0245
     31 H           4.5865   -0.9464    1.8131 H       1  LIG1        0.1483
     32 H           7.9695   -2.5579   -1.3695 H       1  LIG1        0.0637
     33 H           8.6310   -4.9121   -1.7362 H       1  LIG1        0.0618
     34 H           7.1619   -6.7542   -1.0053 H       1  LIG1        0.0621
     35 H           4.3223   -3.8821    0.5253 H       1  LIG1        0.0640
     36 H           4.8560   -7.4678   -0.3007 H       1  LIG1        0.0512
     37 H           3.7114   -6.3002    0.3543 H       1  LIG1        0.0512
     38 H           6.1042   -6.7793    1.9476 H       1  LIG1        0.1506
     39 H           6.0241   -6.4219    4.0269 H       1  LIG1        0.0488
     40 H           7.0793   -7.8419    3.8397 H       1  LIG1        0.0488
     41 H           5.2841   -7.2081    6.2625 H       1  LIG1        0.0575
     42 H           7.0508   -7.1481    6.2052 H       1  LIG1        0.0575
     43 H           4.2017   -9.2982    6.2287 H       1  LIG1        0.0575
     44 H           5.1589  -10.7644    5.9945 H       1  LIG1        0.0575
     45 H           3.9063  -10.0170    3.8976 H       1  LIG1        0.0488
     46 H           5.6486  -10.2376    3.6899 H       1  LIG1        0.0488
@<TRIPOS>BOND
     1     1     2    1
     2     1    24    1
     3     1    25    1
     4     1    26    1
     5     2     3    1
     6     2     4    1
     7     2    27    1
     8     3    28    1
     9     3    29    1
    10     3    30    1
    11     4     5    1
    12     4    31    1
    13     5     6    2
    14     5     7    2
    15     5     8    1
    16     8     9   ar
    17     8    13   ar
    18     9    10   ar
    19     9    32    1
    20    10    11   ar
    21    10    33    1
    22    11    12   ar
    23    11    34    1
    24    12    13   ar
    25    12    14    1
    26    13    35    1
    27    14    15    1
    28    14    36    1
    29    14    37    1
    30    15    16   am
    31    15    38    1
    32    16    17    2
    33    16    18   am
    34    18    19    1
    35    18    23    1
    36    19    20    1
    37    19    39    1
    38    19    40    1
    39    20    21    1
    40    20    41    1
    41    20    42    1
    42    21    22    1
    43    22    23    1
    44    22    43    1
    45    22    44    1
    46    23    45    1
    47    23    46    1
