@<TRIPOS>MOLECULE
*****
 33 34 0 0 0
SMALL
GASTEIGER

@<TRIPOS>ATOM
      1 C           1.1985   -0.0771   -1.5927 C.3     1  LIG1       -0.0565
      2 C           2.1522   -0.0691   -0.3965 C.3     1  LIG1        0.0089
      3 H           1.5465   -0.1457    0.5094 H       1  LIG1        0.0366
      4 C           2.9493    1.2218   -0.3076 C.3     1  LIG1        0.0336
      5 C           4.0351    1.2707   -1.3459 C.2     1  LIG1        0.2328
      6 O           4.4474    2.3269   -1.8183 O.2     1  LIG1       -0.2741
      7 N           4.5954    0.0624   -1.6710 N.am    1  LIG1       -0.2067
      8 N           4.2387   -1.1500   -1.1677 N.2     1  LIG1       -0.1840
      9 C           3.1151   -1.2424   -0.5181 C.2     1  LIG1        0.0697
     10 C           2.7154   -2.5698    0.0364 C.ar    1  LIG1       -0.0019
     11 C           3.1424   -3.7312   -0.6188 C.ar    1  LIG1       -0.0510
     12 C           2.7680   -4.9916   -0.1416 C.ar    1  LIG1       -0.0385
     13 C           1.9393   -5.1113    0.9799 C.ar    1  LIG1        0.0484
     14 C           1.5734   -3.9446    1.6652 C.ar    1  LIG1       -0.0385
     15 C           1.9459   -2.6820    1.1950 C.ar    1  LIG1       -0.0510
     16 N           1.5647   -6.3967    1.4446 N.pl3   1  LIG1       -0.2359
     17 N           0.4277   -6.4373    2.2054 N.2     1  LIG1       -0.1603
     18 C           0.0136   -7.5670    2.6926 C.2     1  LIG1        0.2336
     19 C           0.7214   -8.7919    2.4717 C.1     1  LIG1        0.1320
     20 N           1.2888   -9.7856    2.2700 N.1     1  LIG1       -0.1885
     21 C          -1.1999   -7.4730    3.4497 C.1     1  LIG1        0.1320
     22 N          -2.1873   -7.4138    4.0615 N.1     1  LIG1       -0.1885
     23 H           0.4755    0.7417   -1.5172 H       1  LIG1        0.0236
     24 H           0.6378   -1.0174   -1.6369 H       1  LIG1        0.0236
     25 H           1.7329    0.0273   -2.5430 H       1  LIG1        0.0236
     26 H           3.4359    1.2994    0.6722 H       1  LIG1        0.0365
     27 H           2.2941    2.0908   -0.4314 H       1  LIG1        0.0365
     28 H           5.4015    0.0781   -2.2880 H       1  LIG1        0.1772
     29 H           3.7596   -3.6637   -1.5126 H       1  LIG1        0.0625
     30 H           3.1167   -5.8749   -0.6707 H       1  LIG1        0.0637
     31 H           0.9839   -4.0107    2.5769 H       1  LIG1        0.0637
     32 H           1.6355   -1.8142    1.7672 H       1  LIG1        0.0625
     33 H           1.6883   -7.0978    0.7084 H       1  LIG1        0.1744
@<TRIPOS>BOND
     1     1     2    1
     2     1    23    1
     3     1    24    1
     4     1    25    1
     5     2     3    1
     6     2     4    1
     7     2     9    1
     8     4     5    1
     9     4    26    1
    10     4    27    1
    11     5     6    2
    12     5     7   am
    13     7     8    1
    14     7    28    1
    15     8     9    2
    16     9    10    1
    17    10    11   ar
    18    10    15   ar
    19    11    12   ar
    20    11    29    1
    21    12    13   ar
    22    12    30    1
    23    13    14   ar
    24    13    16    1
    25    14    15   ar
    26    14    31    1
    27    15    32    1
    28    16    17    1
    29    16    33    1
    30    17    18    2
    31    18    19    1
    32    18    21    1
    33    19    20    3
    34    21    22    3
