@<TRIPOS>MOLECULE
*****
 33 34 0 0 0
SMALL
GASTEIGER

@<TRIPOS>ATOM
      1 C           3.2800   -1.4148   -3.0598 C.3     1  LIG1       -0.0565
      2 C           4.0418   -1.2036   -1.7502 C.3     1  LIG1        0.0089
      3 H           4.7906   -1.9929   -1.6513 H       1  LIG1        0.0366
      4 C           4.8109    0.1045   -1.7268 C.3     1  LIG1        0.0336
      5 C           3.9008    1.2756   -1.5043 C.2     1  LIG1        0.2328
      6 O           4.1572    2.3977   -1.9329 O.2     1  LIG1       -0.2741
      7 N           2.8078    1.0295   -0.7145 N.am    1  LIG1       -0.2067
      8 N           2.4729   -0.1648   -0.1515 N.2     1  LIG1       -0.1840
      9 C           3.0588   -1.2432   -0.5865 C.2     1  LIG1        0.0697
     10 C           2.6962   -2.5690    0.0199 C.ar    1  LIG1       -0.0019
     11 C           3.2908   -3.7603   -0.4046 C.ar    1  LIG1       -0.0510
     12 C           2.9133   -4.9814    0.1562 C.ar    1  LIG1       -0.0385
     13 C           1.9482   -5.0467    1.1660 C.ar    1  LIG1        0.0484
     14 C           1.3315   -3.8577    1.5706 C.ar    1  LIG1       -0.0385
     15 C           1.7130   -2.6279    1.0170 C.ar    1  LIG1       -0.0510
     16 N           1.5282   -6.2858    1.7045 N.pl3   1  LIG1       -0.2359
     17 N           2.4431   -7.3023    1.6301 N.2     1  LIG1       -0.1603
     18 C           2.1321   -8.4839    2.0663 C.2     1  LIG1        0.2336
     19 C           0.8390   -8.7698    2.6111 C.1     1  LIG1        0.1320
     20 N          -0.2075   -8.9861    3.0732 N.1     1  LIG1       -0.1885
     21 C           3.1861   -9.4514    1.9533 C.1     1  LIG1        0.1320
     22 N           4.0320  -10.2427    1.8734 N.1     1  LIG1       -0.1885
     23 H           2.5569   -0.6133   -3.2448 H       1  LIG1        0.0236
     24 H           2.7188   -2.3558   -3.0423 H       1  LIG1        0.0236
     25 H           3.9709   -1.4550   -3.9077 H       1  LIG1        0.0236
     26 H           5.3626    0.2438   -2.6625 H       1  LIG1        0.0365
     27 H           5.5352    0.0980   -0.9029 H       1  LIG1        0.0365
     28 H           2.2332    1.8281   -0.4637 H       1  LIG1        0.1772
     29 H           4.0470   -3.7941   -1.1798 H       1  LIG1        0.0625
     30 H           3.3843   -5.8897   -0.2123 H       1  LIG1        0.0637
     31 H           0.5524   -3.8694    2.3288 H       1  LIG1        0.0637
     32 H           1.2241   -1.7207    1.3675 H       1  LIG1        0.0625
     33 H           0.9930   -6.1564    2.5674 H       1  LIG1        0.1744
@<TRIPOS>BOND
     1     1    23    1
     2     1    24    1
     3     1    25    1
     4     2     4    1
     5     2     9    1
     6     2     3    1
     7     2     1    1
     8     4     5    1
     9     4    26    1
    10     4    27    1
    11     5     6    2
    12     5     7   am
    13     7     8    1
    14     7    28    1
    15     8     9    2
    16     9    10    1
    17    10    11   ar
    18    10    15   ar
    19    11    12   ar
    20    11    29    1
    21    12    13   ar
    22    12    30    1
    23    13    14   ar
    24    13    16    1
    25    14    15   ar
    26    14    31    1
    27    15    32    1
    28    16    17    1
    29    16    33    1
    30    17    18    2
    31    18    19    1
    32    18    21    1
    33    19    20    3
    34    21    22    3
