@<TRIPOS>MOLECULE
*****
 46 46 0 0 0
SMALL
GASTEIGER

@<TRIPOS>ATOM
      1 C           6.4101   -0.8480   -1.5025 C.3     1  LIG1       -0.0457
      2 C           6.7060   -1.7393   -0.2938 C.3     1  LIG1        0.0316
      3 C           6.9641   -3.1668   -0.8252 C.3     1  LIG1       -0.0457
      4 C           7.9613   -1.2735    0.4441 C.3     1  LIG1       -0.0457
      5 N           5.5346   -1.8074    0.6160 N.3     1  LIG1       -0.1846
      6 S           4.8469   -0.4956    1.4240 S.O2    1  LIG1        0.0589
      7 O           5.0957    0.7223    0.6694 O.2     1  LIG1       -0.1530
      8 O           3.5181   -0.8976    1.7780 O.2     1  LIG1       -0.1530
      9 C           5.7780   -0.3965    2.9282 C.ar    1  LIG1        0.1060
     10 C           6.4906    0.7677    3.2456 C.ar    1  LIG1       -0.0353
     11 C           7.2987    0.7988    4.3827 C.ar    1  LIG1       -0.0592
     12 C           7.4071   -0.3310    5.1863 C.ar    1  LIG1       -0.0495
     13 C           6.6770   -1.4808    4.8690 C.ar    1  LIG1        0.0386
     14 C           5.8259   -1.5083    3.7612 C.ar    1  LIG1       -0.0232
     15 C           6.7746   -2.6828    5.7109 C.2     1  LIG1        0.2445
     16 O           5.7708   -3.3703    5.8375 O.2     1  LIG1       -0.2702
     17 N           8.0014   -2.9377    6.2783 N.am    1  LIG1       -0.3027
     18 C           8.2516   -4.0917    7.1214 C.3     1  LIG1        0.0886
     19 C           8.7866   -5.2971    6.3348 C.2     1  LIG1        0.2323
     20 O           9.9929   -5.3525    6.0696 O.2     1  LIG1       -0.2739
     21 N           7.8900   -6.2666    5.9016 N.am    1  LIG1       -0.3063
     22 C           6.4554   -6.2612    6.1386 C.3     1  LIG1        0.0029
     23 C           8.3982   -7.4830    5.2977 C.3     1  LIG1        0.0029
     24 H           7.2162   -0.9090   -2.2421 H       1  LIG1        0.0248
     25 H           6.3243    0.2063   -1.2337 H       1  LIG1        0.0248
     26 H           5.4765   -1.1454   -1.9933 H       1  LIG1        0.0248
     27 H           7.8627   -3.1960   -1.4541 H       1  LIG1        0.0248
     28 H           6.1261   -3.5235   -1.4362 H       1  LIG1        0.0248
     29 H           7.1040   -3.8864   -0.0107 H       1  LIG1        0.0248
     30 H           8.8137   -1.2060   -0.2425 H       1  LIG1        0.0248
     31 H           8.2370   -1.9703    1.2444 H       1  LIG1        0.0248
     32 H           7.8317   -0.2846    0.8892 H       1  LIG1        0.0248
     33 H           4.8274   -2.5130    0.4105 H       1  LIG1        0.1486
     34 H           6.4343    1.6455    2.6072 H       1  LIG1        0.0637
     35 H           7.8575    1.6960    4.6352 H       1  LIG1        0.0618
     36 H           8.0426   -0.3020    6.0670 H       1  LIG1        0.0625
     37 H           5.2301   -2.3928    3.5386 H       1  LIG1        0.0644
     38 H           8.8105   -2.4014    5.9905 H       1  LIG1        0.1495
     39 H           7.3712   -4.3437    7.7112 H       1  LIG1        0.0558
     40 H           9.0287   -3.7970    7.8378 H       1  LIG1        0.0558
     41 H           6.0863   -5.3272    6.5269 H       1  LIG1        0.0428
     42 H           6.2197   -7.0184    6.8880 H       1  LIG1        0.0428
     43 H           5.9370   -6.4805    5.1998 H       1  LIG1        0.0428
     44 H           9.4594   -7.4189    5.0498 H       1  LIG1        0.0428
     45 H           7.8293   -7.6947    4.3874 H       1  LIG1        0.0428
     46 H           8.2491   -8.2968    6.0143 H       1  LIG1        0.0428
@<TRIPOS>BOND
     1     1     2    1
     2     1    24    1
     3     1    25    1
     4     1    26    1
     5     2     3    1
     6     2     4    1
     7     2     5    1
     8     3    27    1
     9     3    28    1
    10     3    29    1
    11     4    30    1
    12     4    31    1
    13     4    32    1
    14     5     6    1
    15     5    33    1
    16     6     7    2
    17     6     8    2
    18     6     9    1
    19     9    10   ar
    20     9    14   ar
    21    10    11   ar
    22    10    34    1
    23    11    12   ar
    24    11    35    1
    25    12    13   ar
    26    12    36    1
    27    13    14   ar
    28    13    15    1
    29    14    37    1
    30    15    16    2
    31    15    17   am
    32    17    18    1
    33    17    38    1
    34    18    19    1
    35    18    39    1
    36    18    40    1
    37    19    20    2
    38    19    21   am
    39    21    22    1
    40    21    23    1
    41    22    41    1
    42    22    42    1
    43    22    43    1
    44    23    44    1
    45    23    45    1
    46    23    46    1
