@<TRIPOS>MOLECULE
*****
 51 54 0 0 0
SMALL
GASTEIGER

@<TRIPOS>ATOM
      1 C          -1.3798    1.8869   -0.0216 C.3     1  LIG1        0.0204
      2 C          -2.3773    0.7912   -0.4070 C.3     1  LIG1        0.1483
      3 H          -3.3749    1.2170   -0.5732 H       1  LIG1        0.0778
      4 C          -2.4177   -0.2243    0.7532 C.3     1  LIG1        0.1624
      5 H          -2.7015    0.2933    1.6807 H       1  LIG1        0.0822
      6 O          -1.1443   -0.8450    1.0104 O.3     1  LIG1       -0.4800
      7 C          -0.0397   -0.0492    0.8763 C.ar    1  LIG1        0.1318
      8 C           1.1752   -0.6592    1.1964 C.ar    1  LIG1        0.0221
      9 C           2.3595    0.0525    1.0469 C.ar    1  LIG1        0.1238
     10 C           2.3475    1.3742    0.6201 C.ar    1  LIG1        0.0218
     11 C           1.1302    1.9759    0.3070 C.ar    1  LIG1        0.1271
     12 C          -0.0734    1.2666    0.3993 C.ar    1  LIG1        0.0395
     13 O           1.0986    3.2732   -0.1225 O.3     1  LIG1       -0.5063
     14 O           3.5702   -0.5224    1.3003 O.3     1  LIG1       -0.5065
     15 C          -3.4442   -1.3245    0.5126 C.ar    1  LIG1        0.0034
     16 C          -3.0888   -2.5191   -0.1485 C.ar    1  LIG1       -0.0095
     17 C          -4.0450   -3.5046   -0.3748 C.ar    1  LIG1        0.1623
     18 C          -5.3536   -3.3170    0.0487 C.ar    1  LIG1        0.2006
     19 C          -5.7138   -2.1486    0.7045 C.ar    1  LIG1        0.1623
     20 C          -4.7754   -1.1491    0.9354 C.ar    1  LIG1       -0.0095
     21 O          -6.9982   -1.9743    1.1325 O.3     1  LIG1       -0.5032
     22 O          -6.3022   -4.2790   -0.1720 O.3     1  LIG1       -0.5009
     23 O          -3.7401   -4.6773   -1.0074 O.3     1  LIG1       -0.5032
     24 O          -1.9307    0.1348   -1.6191 O.3     1  LIG1       -0.4534
     25 C          -2.1599    0.7770   -2.7860 C.2     1  LIG1        0.3398
     26 O          -2.7816    1.8190   -2.9392 O.2     1  LIG1       -0.2449
     27 C          -1.4439    0.0697   -3.8709 C.ar    1  LIG1        0.0661
     28 C          -0.9199    0.8090   -4.9474 C.ar    1  LIG1       -0.0023
     29 C          -0.2460    0.1370   -5.9636 C.ar    1  LIG1        0.1628
     30 C          -0.1061   -1.2472   -5.9156 C.ar    1  LIG1        0.2006
     31 C          -0.6296   -1.9702   -4.8523 C.ar    1  LIG1        0.1628
     32 C          -1.2957   -1.3245   -3.8242 C.ar    1  LIG1       -0.0023
     33 O          -0.4993   -3.3276   -4.8107 O.3     1  LIG1       -0.5032
     34 O           0.5459   -1.9192   -6.9138 O.3     1  LIG1       -0.5009
     35 O           0.2995    0.7881   -7.0354 O.3     1  LIG1       -0.5032
     36 H          -1.7719    2.4802    0.8129 H       1  LIG1        0.0353
     37 H          -1.2173    2.5569   -0.8725 H       1  LIG1        0.0353
     38 H           1.1761   -1.6870    1.5452 H       1  LIG1        0.0691
     39 H           3.2875    1.9069    0.5218 H       1  LIG1        0.0691
     40 H           2.0062    3.6210   -0.1290 H       1  LIG1        0.2921
     41 H           3.4317   -1.4674    1.4819 H       1  LIG1        0.2921
     42 H          -2.0627   -2.6623   -0.4776 H       1  LIG1        0.0659
     43 H          -5.0879   -0.2428    1.4477 H       1  LIG1        0.0659
     44 H          -7.4551   -2.8005    0.8734 H       1  LIG1        0.2923
     45 H          -5.8191   -4.9810   -0.6553 H       1  LIG1        0.2924
     46 H          -2.7841   -4.6808   -1.1934 H       1  LIG1        0.2923
     47 H          -1.0381    1.8892   -4.9681 H       1  LIG1        0.0663
     48 H          -1.7027   -1.9029   -3.0021 H       1  LIG1        0.0663
     49 H          -0.0223   -3.5530   -5.6355 H       1  LIG1        0.2923
     50 H           0.8237   -1.2170   -7.5377 H       1  LIG1        0.2924
     51 H           0.1347    1.7428   -6.9371 H       1  LIG1        0.2923
@<TRIPOS>BOND
     1     1     2    1
     2     1    12    1
     3     1    36    1
     4     1    37    1
     5     2     4    1
     6     2    24    1
     7     2     3    1
     8     4     5    1
     9     4     6    1
    10     4    15    1
    11     6     7    1
    12     7     8   ar
    13     7    12   ar
    14     8     9   ar
    15     8    38    1
    16     9    10   ar
    17     9    14    1
    18    10    11   ar
    19    10    39    1
    20    11    12   ar
    21    11    13    1
    22    13    40    1
    23    14    41    1
    24    15    16   ar
    25    15    20   ar
    26    16    17   ar
    27    16    42    1
    28    17    18   ar
    29    17    23    1
    30    18    19   ar
    31    18    22    1
    32    19    20   ar
    33    19    21    1
    34    20    43    1
    35    21    44    1
    36    22    45    1
    37    23    46    1
    38    24    25    1
    39    25    26    2
    40    25    27    1
    41    27    28   ar
    42    27    32   ar
    43    28    29   ar
    44    28    47    1
    45    29    30   ar
    46    29    35    1
    47    30    31   ar
    48    30    34    1
    49    31    32   ar
    50    31    33    1
    51    32    48    1
    52    33    49    1
    53    34    50    1
    54    35    51    1
