@<TRIPOS>MOLECULE
*****
 34 35 0 0 0
SMALL
GASTEIGER

@<TRIPOS>ATOM
      1 C           1.6046   -0.9631   -0.7418 C.ar    1  LIG1       -0.0485
      2 C           0.3806   -1.5922   -0.5054 C.ar    1  LIG1       -0.0458
      3 C          -0.8052   -0.8494   -0.4949 C.ar    1  LIG1        0.0296
      4 C          -0.7509    0.5394   -0.6700 C.ar    1  LIG1        0.0476
      5 C           0.4752    1.1668   -0.9259 C.ar    1  LIG1       -0.0273
      6 C           1.6520    0.4082   -1.0009 C.ar    1  LIG1        0.0385
      7 C           2.9287    1.1012   -1.3452 C.2     1  LIG1        0.2442
      8 O           3.0650    2.2803   -1.1045 O.2     1  LIG1       -0.2702
      9 N           3.8831    0.3010   -1.9503 N.am    1  LIG1       -0.3092
     10 C           5.1264    0.8418   -2.4627 C.3     1  LIG1        0.0353
     11 C           4.9495    1.7834   -3.6640 C.3     1  LIG1        0.0636
     12 O           4.1312    1.2634   -4.7202 O.3     1  LIG1       -0.3725
     13 C           4.7418    0.2115   -5.5053 C.3     1  LIG1        0.0869
     14 C           5.0253   -1.0832   -4.7112 C.2     1  LIG1        0.0673
     15 O           4.0361   -1.6125   -4.1185 O.co2   1  LIG1       -0.5474
     16 O           6.2465   -1.4201   -4.6725 O.co2   1  LIG1       -0.5474
     17 N          -1.9015    1.3417   -0.6582 N.am    1  LIG1       -0.2839
     18 C          -3.1653    0.9462   -0.3228 C.2     1  LIG1        0.2274
     19 O          -4.0929    1.7550   -0.4109 O.2     1  LIG1       -0.2746
     20 C          -3.3727   -0.4137    0.3024 C.3     1  LIG1        0.0752
     21 S          -2.3526   -1.7238   -0.3951 S.3     1  LIG1       -0.1140
     22 H           2.5146   -1.5614   -0.7530 H       1  LIG1        0.0625
     23 H           0.3656   -2.6707   -0.3658 H       1  LIG1        0.0629
     24 H           0.5237    2.2390   -1.0989 H       1  LIG1        0.0644
     25 H           3.6059   -0.5717   -2.4062 H       1  LIG1        0.1491
     26 H           5.7376   -0.0200   -2.7293 H       1  LIG1        0.0485
     27 H           5.6606    1.3378   -1.6519 H       1  LIG1        0.0485
     28 H           5.9243    2.0898   -4.0609 H       1  LIG1        0.0575
     29 H           4.4554    2.7001   -3.3197 H       1  LIG1        0.0575
     30 H           5.6488    0.5966   -5.9856 H       1  LIG1        0.0622
     31 H           4.0311   -0.0436   -6.2984 H       1  LIG1        0.0622
     32 H          -1.8203    2.3117   -0.9373 H       1  LIG1        0.1549
     33 H          -4.4221   -0.6979    0.1740 H       1  LIG1        0.0474
     34 H          -3.1663   -0.3324    1.3737 H       1  LIG1        0.0474
@<TRIPOS>BOND
     1     1     2   ar
     2     1     6   ar
     3     1    22    1
     4     2     3   ar
     5     2    23    1
     6     3     4   ar
     7     3    21    1
     8     4     5   ar
     9     4    17    1
    10     5     6   ar
    11     5    24    1
    12     6     7    1
    13     7     8    2
    14     7     9   am
    15     9    10    1
    16     9    25    1
    17    10    11    1
    18    10    26    1
    19    10    27    1
    20    11    12    1
    21    11    28    1
    22    11    29    1
    23    12    13    1
    24    13    14    1
    25    13    30    1
    26    13    31    1
    27    14    15   ar
    28    14    16   ar
    29    17    18   am
    30    17    32    1
    31    18    19    2
    32    18    20    1
    33    20    21    1
    34    20    33    1
    35    20    34    1
