
 OpenBabel06051916343D

 51 54  0  0  1  0  0  0  0  0999 V2000
   -1.3798    1.8869   -0.0216 C   0  0  0  0  0  0  0  0  0  0  0  0
   -2.3773    0.7912   -0.4070 C   0  0  2  0  0  0  0  0  0  0  0  0
   -3.3749    1.2170   -0.5732 H   0  0  0  0  0  0  0  0  0  0  0  0
   -2.4177   -0.2243    0.7532 C   0  0  2  0  0  0  0  0  0  0  0  0
   -2.7015    0.2933    1.6807 H   0  0  0  0  0  0  0  0  0  0  0  0
   -1.1443   -0.8450    1.0104 O   0  0  0  0  0  0  0  0  0  0  0  0
   -0.0397   -0.0492    0.8763 C   0  0  0  0  0  0  0  0  0  0  0  0
    1.1752   -0.6592    1.1964 C   0  0  0  0  0  0  0  0  0  0  0  0
    2.3595    0.0525    1.0469 C   0  0  0  0  0  0  0  0  0  0  0  0
    2.3475    1.3742    0.6201 C   0  0  0  0  0  0  0  0  0  0  0  0
    1.1302    1.9759    0.3070 C   0  0  0  0  0  0  0  0  0  0  0  0
   -0.0734    1.2666    0.3993 C   0  0  0  0  0  0  0  0  0  0  0  0
    1.0986    3.2732   -0.1225 O   0  0  0  0  0  0  0  0  0  0  0  0
    3.5702   -0.5224    1.3003 O   0  0  0  0  0  0  0  0  0  0  0  0
   -3.4442   -1.3245    0.5126 C   0  0  0  0  0  0  0  0  0  0  0  0
   -3.0888   -2.5191   -0.1485 C   0  0  0  0  0  0  0  0  0  0  0  0
   -4.0450   -3.5046   -0.3748 C   0  0  0  0  0  0  0  0  0  0  0  0
   -5.3536   -3.3170    0.0487 C   0  0  0  0  0  0  0  0  0  0  0  0
   -5.7138   -2.1486    0.7045 C   0  0  0  0  0  0  0  0  0  0  0  0
   -4.7754   -1.1491    0.9354 C   0  0  0  0  0  0  0  0  0  0  0  0
   -6.9982   -1.9743    1.1325 O   0  0  0  0  0  0  0  0  0  0  0  0
   -6.3022   -4.2790   -0.1720 O   0  0  0  0  0  0  0  0  0  0  0  0
   -3.7401   -4.6773   -1.0074 O   0  0  0  0  0  0  0  0  0  0  0  0
   -1.9307    0.1348   -1.6191 O   0  0  0  0  0  0  0  0  0  0  0  0
   -2.1599    0.7770   -2.7860 C   0  0  0  0  0  0  0  0  0  0  0  0
   -2.7816    1.8190   -2.9392 O   0  0  0  0  0  0  0  0  0  0  0  0
   -1.4439    0.0697   -3.8709 C   0  0  0  0  0  0  0  0  0  0  0  0
   -0.9199    0.8090   -4.9474 C   0  0  0  0  0  0  0  0  0  0  0  0
   -0.2460    0.1370   -5.9636 C   0  0  0  0  0  0  0  0  0  0  0  0
   -0.1061   -1.2472   -5.9156 C   0  0  0  0  0  0  0  0  0  0  0  0
   -0.6296   -1.9702   -4.8523 C   0  0  0  0  0  0  0  0  0  0  0  0
   -1.2957   -1.3245   -3.8242 C   0  0  0  0  0  0  0  0  0  0  0  0
   -0.4993   -3.3276   -4.8107 O   0  0  0  0  0  0  0  0  0  0  0  0
    0.5459   -1.9192   -6.9138 O   0  0  0  0  0  0  0  0  0  0  0  0
    0.2995    0.7881   -7.0354 O   0  0  0  0  0  0  0  0  0  0  0  0
   -1.7719    2.4802    0.8129 H   0  0  0  0  0  0  0  0  0  0  0  0
   -1.2173    2.5569   -0.8725 H   0  0  0  0  0  0  0  0  0  0  0  0
    1.1761   -1.6870    1.5452 H   0  0  0  0  0  0  0  0  0  0  0  0
    3.2875    1.9069    0.5218 H   0  0  0  0  0  0  0  0  0  0  0  0
    2.0062    3.6210   -0.1290 H   0  0  0  0  0  0  0  0  0  0  0  0
    3.4317   -1.4674    1.4819 H   0  0  0  0  0  0  0  0  0  0  0  0
   -2.0627   -2.6623   -0.4776 H   0  0  0  0  0  0  0  0  0  0  0  0
   -5.0879   -0.2428    1.4477 H   0  0  0  0  0  0  0  0  0  0  0  0
   -7.4551   -2.8005    0.8734 H   0  0  0  0  0  0  0  0  0  0  0  0
   -5.8191   -4.9810   -0.6553 H   0  0  0  0  0  0  0  0  0  0  0  0
   -2.7841   -4.6808   -1.1934 H   0  0  0  0  0  0  0  0  0  0  0  0
   -1.0381    1.8892   -4.9681 H   0  0  0  0  0  0  0  0  0  0  0  0
   -1.7027   -1.9029   -3.0021 H   0  0  0  0  0  0  0  0  0  0  0  0
   -0.0223   -3.5530   -5.6355 H   0  0  0  0  0  0  0  0  0  0  0  0
    0.8237   -1.2170   -7.5377 H   0  0  0  0  0  0  0  0  0  0  0  0
    0.1347    1.7428   -6.9371 H   0  0  0  0  0  0  0  0  0  0  0  0
  1  2  1  0  0  0  0
  1 12  1  0  0  0  0
  1 36  1  0  0  0  0
  1 37  1  0  0  0  0
  2  4  1  0  0  0  0
  2 24  1  0  0  0  0
  2  3  1  6  0  0  0
  4  5  1  1  0  0  0
  4  6  1  0  0  0  0
  4 15  1  0  0  0  0
  6  7  1  0  0  0  0
  7  8  2  0  0  0  0
  7 12  1  0  0  0  0
  8  9  1  0  0  0  0
  8 38  1  0  0  0  0
  9 10  2  0  0  0  0
  9 14  1  0  0  0  0
 10 11  1  0  0  0  0
 10 39  1  0  0  0  0
 11 12  2  0  0  0  0
 11 13  1  0  0  0  0
 13 40  1  0  0  0  0
 14 41  1  0  0  0  0
 15 16  2  0  0  0  0
 15 20  1  0  0  0  0
 16 17  1  0  0  0  0
 16 42  1  0  0  0  0
 17 18  2  0  0  0  0
 17 23  1  0  0  0  0
 18 19  1  0  0  0  0
 18 22  1  0  0  0  0
 19 20  2  0  0  0  0
 19 21  1  0  0  0  0
 20 43  1  0  0  0  0
 21 44  1  0  0  0  0
 22 45  1  0  0  0  0
 23 46  1  0  0  0  0
 24 25  1  0  0  0  0
 25 26  2  0  0  0  0
 25 27  1  0  0  0  0
 27 28  2  0  0  0  0
 27 32  1  0  0  0  0
 28 29  1  0  0  0  0
 28 47  1  0  0  0  0
 29 30  2  0  0  0  0
 29 35  1  0  0  0  0
 30 31  1  0  0  0  0
 30 34  1  0  0  0  0
 31 32  2  0  0  0  0
 31 33  1  0  0  0  0
 32 48  1  0  0  0  0
 33 49  1  0  0  0  0
 34 50  1  0  0  0  0
 35 51  1  0  0  0  0
M  END
$$$$

 OpenBabel06051916343D

 31 32  0  0  0  0  0  0  0  0999 V2000
    3.0742   -0.9524   -1.0053 C   0  0  0  0  0  0  0  0  0  0  0  0
    2.5454   -0.1125    0.1521 C   0  0  0  0  0  0  0  0  0  0  0  0
    3.3165    1.2097    0.3569 C   0  0  0  0  0  0  0  0  0  0  0  0
    2.7013    2.0011    1.5317 C   0  0  0  0  0  0  0  0  0  0  0  0
    3.3883    3.3364    1.7963 C   0  0  0  0  0  0  0  0  0  0  0  0
    4.7362    0.9769    0.5579 N   0  0  0  0  0  0  0  0  0  0  0  0
    5.7319    1.4808   -0.2837 C   0  0  0  0  0  0  0  0  0  0  0  0
    5.5888    2.2173   -1.3931 N   0  0  0  0  0  0  0  0  0  0  0  0
    6.7785    2.5490   -1.9543 C   0  0  0  0  0  0  0  0  0  0  0  0
    8.0202    2.1607   -1.4243 C   0  0  0  0  0  0  0  0  0  0  0  0
    8.1516    1.4109   -0.2925 N   0  0  0  0  0  0  0  0  0  0  0  0
    6.9673    1.0947    0.2427 C   0  0  0  0  0  0  0  0  0  0  0  0
    6.7384    0.3628    1.3931 N   0  0  0  0  0  0  0  0  0  0  0  0
    5.3585    0.2853    1.6109 C   0  0  0  0  0  0  0  0  0  0  0  0
    4.8288   -0.2761    2.5545 O   0  0  0  0  0  0  0  0  0  0  0  0
    6.6778    3.3324   -3.1401 C   0  0  0  0  0  0  0  0  0  0  0  0
    6.5624    3.9938   -4.1412 C   0  0  0  0  0  0  0  0  0  0  0  0
    2.4449   -1.8376   -1.1452 H   0  0  0  0  0  0  0  0  0  0  0  0
    4.0929   -1.3027   -0.8118 H   0  0  0  0  0  0  0  0  0  0  0  0
    3.0749   -0.3852   -1.9412 H   0  0  0  0  0  0  0  0  0  0  0  0
    2.5765   -0.7184    1.0652 H   0  0  0  0  0  0  0  0  0  0  0  0
    1.4889    0.1134   -0.0394 H   0  0  0  0  0  0  0  0  0  0  0  0
    3.1889    1.8117   -0.5525 H   0  0  0  0  0  0  0  0  0  0  0  0
    2.7347    1.4032    2.4500 H   0  0  0  0  0  0  0  0  0  0  0  0
    1.6418    2.1951    1.3228 H   0  0  0  0  0  0  0  0  0  0  0  0
    4.4560    3.2139    2.0024 H   0  0  0  0  0  0  0  0  0  0  0  0
    2.9411    3.8195    2.6712 H   0  0  0  0  0  0  0  0  0  0  0  0
    3.2767    4.0112    0.9422 H   0  0  0  0  0  0  0  0  0  0  0  0
    8.9525    2.4471   -1.9022 H   0  0  0  0  0  0  0  0  0  0  0  0
    7.4470   -0.0280    1.9887 H   0  0  0  0  0  0  0  0  0  0  0  0
    6.4269    4.5752   -5.0244 H   0  0  0  0  0  0  0  0  0  0  0  0
  1  2  1  0  0  0  0
  1 18  1  0  0  0  0
  1 19  1  0  0  0  0
  1 20  1  0  0  0  0
  2  3  1  0  0  0  0
  2 21  1  0  0  0  0
  2 22  1  0  0  0  0
  3  4  1  0  0  0  0
  3  6  1  0  0  0  0
  3 23  1  0  0  0  0
  4  5  1  0  0  0  0
  4 24  1  0  0  0  0
  4 25  1  0  0  0  0
  5 26  1  0  0  0  0
  5 27  1  0  0  0  0
  5 28  1  0  0  0  0
  6  7  1  0  0  0  0
  6 14  1  0  0  0  0
  7  8  2  0  0  0  0
  7 12  1  0  0  0  0
  8  9  1  0  0  0  0
  9 10  2  0  0  0  0
  9 16  1  0  0  0  0
 10 11  1  0  0  0  0
 10 29  1  0  0  0  0
 11 12  2  0  0  0  0
 12 13  1  0  0  0  0
 13 14  1  0  0  0  0
 13 30  1  0  0  0  0
 14 15  2  0  0  0  0
 16 17  3  0  0  0  0
 17 31  1  0  0  0  0
M  END
$$$$

 OpenBabel06051916343D

 33 34  0  0  1  0  0  0  0  0999 V2000
    1.1985   -0.0771   -1.5927 C   0  0  0  0  0  0  0  0  0  0  0  0
    2.1522   -0.0691   -0.3965 C   0  0  2  0  0  0  0  0  0  0  0  0
    1.5465   -0.1457    0.5094 H   0  0  0  0  0  0  0  0  0  0  0  0
    2.9493    1.2218   -0.3076 C   0  0  0  0  0  0  0  0  0  0  0  0
    4.0351    1.2707   -1.3459 C   0  0  0  0  0  0  0  0  0  0  0  0
    4.4474    2.3269   -1.8183 O   0  0  0  0  0  0  0  0  0  0  0  0
    4.5954    0.0624   -1.6710 N   0  0  0  0  0  0  0  0  0  0  0  0
    4.2387   -1.1500   -1.1677 N   0  0  0  0  0  0  0  0  0  0  0  0
    3.1151   -1.2424   -0.5181 C   0  0  0  0  0  0  0  0  0  0  0  0
    2.7154   -2.5698    0.0364 C   0  0  0  0  0  0  0  0  0  0  0  0
    3.1424   -3.7312   -0.6188 C   0  0  0  0  0  0  0  0  0  0  0  0
    2.7680   -4.9916   -0.1416 C   0  0  0  0  0  0  0  0  0  0  0  0
    1.9393   -5.1113    0.9799 C   0  0  0  0  0  0  0  0  0  0  0  0
    1.5734   -3.9446    1.6652 C   0  0  0  0  0  0  0  0  0  0  0  0
    1.9459   -2.6820    1.1950 C   0  0  0  0  0  0  0  0  0  0  0  0
    1.5647   -6.3967    1.4446 N   0  0  0  0  0  0  0  0  0  0  0  0
    0.4277   -6.4373    2.2054 N   0  0  0  0  0  0  0  0  0  0  0  0
    0.0136   -7.5670    2.6926 C   0  0  0  0  0  0  0  0  0  0  0  0
    0.7214   -8.7919    2.4717 C   0  0  0  0  0  0  0  0  0  0  0  0
    1.2888   -9.7856    2.2700 N   0  0  0  0  0  0  0  0  0  0  0  0
   -1.1999   -7.4730    3.4497 C   0  0  0  0  0  0  0  0  0  0  0  0
   -2.1873   -7.4138    4.0615 N   0  0  0  0  0  0  0  0  0  0  0  0
    0.4755    0.7417   -1.5172 H   0  0  0  0  0  0  0  0  0  0  0  0
    0.6378   -1.0174   -1.6369 H   0  0  0  0  0  0  0  0  0  0  0  0
    1.7329    0.0273   -2.5430 H   0  0  0  0  0  0  0  0  0  0  0  0
    3.4359    1.2994    0.6722 H   0  0  0  0  0  0  0  0  0  0  0  0
    2.2941    2.0908   -0.4314 H   0  0  0  0  0  0  0  0  0  0  0  0
    5.4015    0.0781   -2.2880 H   0  0  0  0  0  0  0  0  0  0  0  0
    3.7596   -3.6637   -1.5126 H   0  0  0  0  0  0  0  0  0  0  0  0
    3.1167   -5.8749   -0.6707 H   0  0  0  0  0  0  0  0  0  0  0  0
    0.9839   -4.0107    2.5769 H   0  0  0  0  0  0  0  0  0  0  0  0
    1.6355   -1.8142    1.7672 H   0  0  0  0  0  0  0  0  0  0  0  0
    1.6883   -7.0978    0.7084 H   0  0  0  0  0  0  0  0  0  0  0  0
  1  2  1  0  0  0  0
  1 23  1  0  0  0  0
  1 24  1  0  0  0  0
  1 25  1  0  0  0  0
  2  3  1  1  0  0  0
  2  4  1  0  0  0  0
  2  9  1  0  0  0  0
  4  5  1  0  0  0  0
  4 26  1  0  0  0  0
  4 27  1  0  0  0  0
  5  6  2  0  0  0  0
  5  7  1  0  0  0  0
  7  8  1  0  0  0  0
  7 28  1  0  0  0  0
  8  9  2  0  0  0  0
  9 10  1  0  0  0  0
 10 11  2  0  0  0  0
 10 15  1  0  0  0  0
 11 12  1  0  0  0  0
 11 29  1  0  0  0  0
 12 13  2  0  0  0  0
 12 30  1  0  0  0  0
 13 14  1  0  0  0  0
 13 16  1  0  0  0  0
 14 15  2  0  0  0  0
 14 31  1  0  0  0  0
 15 32  1  0  0  0  0
 16 17  1  0  0  0  0
 16 33  1  0  0  0  0
 17 18  2  0  0  0  0
 18 19  1  0  0  0  0
 18 21  1  0  0  0  0
 19 20  3  0  0  0  0
 21 22  3  0  0  0  0
M  END
$$$$

 OpenBabel06051916343D

 33 34  0  0  1  0  0  0  0  0999 V2000
    3.2800   -1.4148   -3.0598 C   0  0  0  0  0  0  0  0  0  0  0  0
    4.0418   -1.2036   -1.7502 C   0  0  1  0  0  0  0  0  0  0  0  0
    4.7906   -1.9929   -1.6513 H   0  0  0  0  0  0  0  0  0  0  0  0
    4.8109    0.1045   -1.7268 C   0  0  0  0  0  0  0  0  0  0  0  0
    3.9008    1.2756   -1.5043 C   0  0  0  0  0  0  0  0  0  0  0  0
    4.1572    2.3977   -1.9329 O   0  0  0  0  0  0  0  0  0  0  0  0
    2.8078    1.0295   -0.7145 N   0  0  0  0  0  0  0  0  0  0  0  0
    2.4729   -0.1648   -0.1515 N   0  0  0  0  0  0  0  0  0  0  0  0
    3.0588   -1.2432   -0.5865 C   0  0  0  0  0  0  0  0  0  0  0  0
    2.6962   -2.5690    0.0199 C   0  0  0  0  0  0  0  0  0  0  0  0
    3.2908   -3.7603   -0.4046 C   0  0  0  0  0  0  0  0  0  0  0  0
    2.9133   -4.9814    0.1562 C   0  0  0  0  0  0  0  0  0  0  0  0
    1.9482   -5.0467    1.1660 C   0  0  0  0  0  0  0  0  0  0  0  0
    1.3315   -3.8577    1.5706 C   0  0  0  0  0  0  0  0  0  0  0  0
    1.7130   -2.6279    1.0170 C   0  0  0  0  0  0  0  0  0  0  0  0
    1.5282   -6.2858    1.7045 N   0  0  0  0  0  0  0  0  0  0  0  0
    2.4431   -7.3023    1.6301 N   0  0  0  0  0  0  0  0  0  0  0  0
    2.1321   -8.4839    2.0663 C   0  0  0  0  0  0  0  0  0  0  0  0
    0.8390   -8.7698    2.6111 C   0  0  0  0  0  0  0  0  0  0  0  0
   -0.2075   -8.9861    3.0732 N   0  0  0  0  0  0  0  0  0  0  0  0
    3.1861   -9.4514    1.9533 C   0  0  0  0  0  0  0  0  0  0  0  0
    4.0320  -10.2427    1.8734 N   0  0  0  0  0  0  0  0  0  0  0  0
    2.5569   -0.6133   -3.2448 H   0  0  0  0  0  0  0  0  0  0  0  0
    2.7188   -2.3558   -3.0423 H   0  0  0  0  0  0  0  0  0  0  0  0
    3.9709   -1.4550   -3.9077 H   0  0  0  0  0  0  0  0  0  0  0  0
    5.3626    0.2438   -2.6625 H   0  0  0  0  0  0  0  0  0  0  0  0
    5.5352    0.0980   -0.9029 H   0  0  0  0  0  0  0  0  0  0  0  0
    2.2332    1.8281   -0.4637 H   0  0  0  0  0  0  0  0  0  0  0  0
    4.0470   -3.7941   -1.1798 H   0  0  0  0  0  0  0  0  0  0  0  0
    3.3843   -5.8897   -0.2123 H   0  0  0  0  0  0  0  0  0  0  0  0
    0.5524   -3.8694    2.3288 H   0  0  0  0  0  0  0  0  0  0  0  0
    1.2241   -1.7207    1.3675 H   0  0  0  0  0  0  0  0  0  0  0  0
    0.9930   -6.1564    2.5674 H   0  0  0  0  0  0  0  0  0  0  0  0
  1 23  1  0  0  0  0
  1 24  1  0  0  0  0
  1 25  1  0  0  0  0
  2  4  1  0  0  0  0
  2  9  1  0  0  0  0
  2  3  1  1  0  0  0
  2  1  1  0  0  0  0
  4  5  1  0  0  0  0
  4 26  1  0  0  0  0
  4 27  1  0  0  0  0
  5  6  2  0  0  0  0
  5  7  1  0  0  0  0
  7  8  1  0  0  0  0
  7 28  1  0  0  0  0
  8  9  2  0  0  0  0
  9 10  1  0  0  0  0
 10 11  2  0  0  0  0
 10 15  1  0  0  0  0
 11 12  1  0  0  0  0
 11 29  1  0  0  0  0
 12 13  2  0  0  0  0
 12 30  1  0  0  0  0
 13 14  1  0  0  0  0
 13 16  1  0  0  0  0
 14 15  2  0  0  0  0
 14 31  1  0  0  0  0
 15 32  1  0  0  0  0
 16 17  1  0  0  0  0
 16 33  1  0  0  0  0
 17 18  2  0  0  0  0
 18 19  1  0  0  0  0
 18 21  1  0  0  0  0
 19 20  3  0  0  0  0
 21 22  3  0  0  0  0
M  END
$$$$

 OpenBabel06051916343D

 61 63  0  0  1  0  0  0  0  0999 V2000
    0.1383    3.7268    6.7981 C   0  0  0  0  0  0  0  0  0  0  0  0
    0.3844    2.7524    5.6719 C   0  0  0  0  0  0  0  0  0  0  0  0
    0.5707    3.6768    4.5206 C   0  0  0  0  0  0  0  0  0  0  0  0
    1.5978    1.8090    5.9058 C   0  0  0  0  0  0  0  0  0  0  0  0
    2.7624    2.4970    6.3601 O   0  0  0  0  0  0  0  0  0  0  0  0
    3.8850    1.6405    6.5959 C   0  0  0  0  0  0  0  0  0  0  0  0
    5.1785    2.4101    7.0322 C   0  0  3  0  0  0  0  0  0  0  0  0
    5.8423    3.3479    5.9128 C   0  0  0  0  0  0  0  0  0  0  0  0
    5.1066    4.5513    5.3821 N   0  0  0  0  0  0  0  0  0  0  0  0
    5.4562    5.8557    6.0956 C   0  0  0  0  0  0  0  0  0  0  0  0
    4.8336    7.2293    5.7617 C   0  0  0  0  0  0  0  0  0  0  0  0
    5.5786    8.3986    5.8697 C   0  0  0  0  0  0  0  0  0  0  0  0
    5.1935    9.5638    5.1954 C   0  0  0  0  0  0  0  0  0  0  0  0
    4.1260    9.5278    4.3098 C   0  0  0  0  0  0  0  0  0  0  0  0
    3.2875    8.4464    4.3784 C   0  0  0  0  0  0  0  0  0  0  0  0
    3.5268    7.4139    5.3063 C   0  0  0  0  0  0  0  0  0  0  0  0
    4.3039    4.4086    4.2485 C   0  0  0  0  0  0  0  0  0  0  0  0
    3.7886    5.4023    3.4991 C   0  0  0  0  0  0  0  0  0  0  0  0
    2.5758    5.4244    2.8230 C   0  0  0  0  0  0  0  0  0  0  0  0
    2.1112    4.1794    2.3668 C   0  0  0  0  0  0  0  0  0  0  0  0
    2.7766    3.0738    2.8390 C   0  0  0  0  0  0  0  0  0  0  0  0
    3.8218    3.1520    3.7858 C   0  0  0  0  0  0  0  0  0  0  0  0
    5.0867    2.9810    8.4098 N   0  0  0  0  0  0  0  0  0  0  0  0
    4.7976    1.9685    9.4537 C   0  0  0  0  0  0  0  0  0  0  0  0
    3.8583    2.6484   10.4343 C   0  0  0  0  0  0  0  0  0  0  0  0
    3.0391    3.5481    9.5404 C   0  0  0  0  0  0  0  0  0  0  0  0
    4.0475    4.0150    8.5141 C   0  0  0  0  0  0  0  0  0  0  0  0
   -0.1398    3.1932    7.6974 H   0  0  0  0  0  0  0  0  0  0  0  0
   -0.6668    4.4179    6.5127 H   0  0  0  0  0  0  0  0  0  0  0  0
    1.0265    4.3477    6.9759 H   0  0  0  0  0  0  0  0  0  0  0  0
   -0.4926    2.1448    5.4289 H   0  0  0  0  0  0  0  0  0  0  0  0
    1.5438    4.1292    4.7016 H   0  0  0  0  0  0  0  0  0  0  0  0
   -0.1038    4.5323    4.4015 H   0  0  0  0  0  0  0  0  0  0  0  0
    0.4508    3.0692    3.6255 H   0  0  0  0  0  0  0  0  0  0  0  0
    1.8557    1.2616    4.9901 H   0  0  0  0  0  0  0  0  0  0  0  0
    1.3165    1.0796    6.6673 H   0  0  0  0  0  0  0  0  0  0  0  0
    4.1179    1.0151    5.7280 H   0  0  0  0  0  0  0  0  0  0  0  0
    3.5771    0.9176    7.3515 H   0  0  0  0  0  0  0  0  0  0  0  0
    5.9447    1.6204    7.1383 H   0  0  0  0  0  0  0  0  0  0  0  0
    6.1352    2.7032    5.0667 H   0  0  0  0  0  0  0  0  0  0  0  0
    6.8238    3.6780    6.2948 H   0  0  0  0  0  0  0  0  0  0  0  0
    6.5447    5.9841    5.9407 H   0  0  0  0  0  0  0  0  0  0  0  0
    5.3371    5.7278    7.1624 H   0  0  0  0  0  0  0  0  0  0  0  0
    6.4973    8.4126    6.4626 H   0  0  0  0  0  0  0  0  0  0  0  0
    5.7645   10.4889    5.3097 H   0  0  0  0  0  0  0  0  0  0  0  0
    3.9328   10.3412    3.6145 H   0  0  0  0  0  0  0  0  0  0  0  0
    2.5028    8.3348    3.6268 H   0  0  0  0  0  0  0  0  0  0  0  0
    2.8098    6.6064    5.3931 H   0  0  0  0  0  0  0  0  0  0  0  0
    4.3301    6.3550    3.4887 H   0  0  0  0  0  0  0  0  0  0  0  0
    1.9188    6.2689    2.8106 H   0  0  0  0  0  0  0  0  0  0  0  0
    1.1116    4.1390    1.9424 H   0  0  0  0  0  0  0  0  0  0  0  0
    2.2900    2.0807    2.7497 H   0  0  0  0  0  0  0  0  0  0  0  0
    4.1331    2.2545    4.2387 H   0  0  0  0  0  0  0  0  0  0  0  0
    5.7096    1.6118    9.9427 H   0  0  0  0  0  0  0  0  0  0  0  0
    4.2895    1.0730    9.0882 H   0  0  0  0  0  0  0  0  0  0  0  0
    4.4277    3.2419   11.1568 H   0  0  0  0  0  0  0  0  0  0  0  0
    3.2275    1.9399   10.9803 H   0  0  0  0  0  0  0  0  0  0  0  0
    2.5953    4.3878   10.0810 H   0  0  0  0  0  0  0  0  0  0  0  0
    2.2346    2.9801    9.0591 H   0  0  0  0  0  0  0  0  0  0  0  0
    4.5248    4.9241    8.8907 H   0  0  0  0  0  0  0  0  0  0  0  0
    3.5572    4.2791    7.5768 H   0  0  0  0  0  0  0  0  0  0  0  0
  1  2  1  0  0  0  0
  1 28  1  0  0  0  0
  1 29  1  0  0  0  0
  1 30  1  0  0  0  0
  2  3  1  0  0  0  0
  2  4  1  0  0  0  0
  2 31  1  0  0  0  0
  3 32  1  0  0  0  0
  3 33  1  0  0  0  0
  3 34  1  0  0  0  0
  4  5  1  0  0  0  0
  4 35  1  0  0  0  0
  4 36  1  0  0  0  0
  5  6  1  0  0  0  0
  6  7  1  0  0  0  0
  6 37  1  0  0  0  0
  6 38  1  0  0  0  0
  7  8  1  0  0  0  0
  7 23  1  0  0  0  0
  7 39  1  0  0  0  0
  8  9  1  0  0  0  0
  8 40  1  0  0  0  0
  8 41  1  0  0  0  0
  9 10  1  0  0  0  0
  9 17  1  0  0  0  0
 10 11  1  0  0  0  0
 10 42  1  0  0  0  0
 10 43  1  0  0  0  0
 11 12  2  0  0  0  0
 11 16  1  0  0  0  0
 12 13  1  0  0  0  0
 12 44  1  0  0  0  0
 13 14  2  0  0  0  0
 13 45  1  0  0  0  0
 14 15  1  0  0  0  0
 14 46  1  0  0  0  0
 15 16  2  0  0  0  0
 15 47  1  0  0  0  0
 16 48  1  0  0  0  0
 17 18  2  0  0  0  0
 17 22  1  0  0  0  0
 18 19  1  0  0  0  0
 18 49  1  0  0  0  0
 19 20  2  0  0  0  0
 19 50  1  0  0  0  0
 20 21  1  0  0  0  0
 20 51  1  0  0  0  0
 21 22  2  0  0  0  0
 21 52  1  0  0  0  0
 22 53  1  0  0  0  0
 23 24  1  0  0  0  0
 23 27  1  0  0  0  0
 24 25  1  0  0  0  0
 24 54  1  0  0  0  0
 24 55  1  0  0  0  0
 25 26  1  0  0  0  0
 25 56  1  0  0  0  0
 25 57  1  0  0  0  0
 26 27  1  0  0  0  0
 26 58  1  0  0  0  0
 26 59  1  0  0  0  0
 27 60  1  0  0  0  0
 27 61  1  0  0  0  0
M  END
$$$$

 OpenBabel06051916343D

 34 35  0  0  0  0  0  0  0  0999 V2000
    1.6046   -0.9631   -0.7418 C   0  0  0  0  0  0  0  0  0  0  0  0
    0.3806   -1.5922   -0.5054 C   0  0  0  0  0  0  0  0  0  0  0  0
   -0.8052   -0.8494   -0.4949 C   0  0  0  0  0  0  0  0  0  0  0  0
   -0.7509    0.5394   -0.6700 C   0  0  0  0  0  0  0  0  0  0  0  0
    0.4752    1.1668   -0.9259 C   0  0  0  0  0  0  0  0  0  0  0  0
    1.6520    0.4082   -1.0009 C   0  0  0  0  0  0  0  0  0  0  0  0
    2.9287    1.1012   -1.3452 C   0  0  0  0  0  0  0  0  0  0  0  0
    3.0650    2.2803   -1.1045 O   0  0  0  0  0  0  0  0  0  0  0  0
    3.8831    0.3010   -1.9503 N   0  0  0  0  0  0  0  0  0  0  0  0
    5.1264    0.8418   -2.4627 C   0  0  0  0  0  0  0  0  0  0  0  0
    4.9495    1.7834   -3.6640 C   0  0  0  0  0  0  0  0  0  0  0  0
    4.1312    1.2634   -4.7202 O   0  0  0  0  0  0  0  0  0  0  0  0
    4.7418    0.2115   -5.5053 C   0  0  0  0  0  0  0  0  0  0  0  0
    5.0253   -1.0832   -4.7112 C   0  0  0  0  0  0  0  0  0  0  0  0
    4.0361   -1.6125   -4.1185 O   0  0  0  0  0  0  0  0  0  0  0  0
    6.2465   -1.4201   -4.6725 O   0  5  0  0  0  0  0  0  0  0  0  0
   -1.9015    1.3417   -0.6582 N   0  0  0  0  0  0  0  0  0  0  0  0
   -3.1653    0.9462   -0.3228 C   0  0  0  0  0  0  0  0  0  0  0  0
   -4.0929    1.7550   -0.4109 O   0  0  0  0  0  0  0  0  0  0  0  0
   -3.3727   -0.4137    0.3024 C   0  0  0  0  0  0  0  0  0  0  0  0
   -2.3526   -1.7238   -0.3951 S   0  0  0  0  0  0  0  0  0  0  0  0
    2.5146   -1.5614   -0.7530 H   0  0  0  0  0  0  0  0  0  0  0  0
    0.3656   -2.6707   -0.3658 H   0  0  0  0  0  0  0  0  0  0  0  0
    0.5237    2.2390   -1.0989 H   0  0  0  0  0  0  0  0  0  0  0  0
    3.6059   -0.5717   -2.4062 H   0  0  0  0  0  0  0  0  0  0  0  0
    5.7376   -0.0200   -2.7293 H   0  0  0  0  0  0  0  0  0  0  0  0
    5.6606    1.3378   -1.6519 H   0  0  0  0  0  0  0  0  0  0  0  0
    5.9243    2.0898   -4.0609 H   0  0  0  0  0  0  0  0  0  0  0  0
    4.4554    2.7001   -3.3197 H   0  0  0  0  0  0  0  0  0  0  0  0
    5.6488    0.5966   -5.9856 H   0  0  0  0  0  0  0  0  0  0  0  0
    4.0311   -0.0436   -6.2984 H   0  0  0  0  0  0  0  0  0  0  0  0
   -1.8203    2.3117   -0.9373 H   0  0  0  0  0  0  0  0  0  0  0  0
   -4.4221   -0.6979    0.1740 H   0  0  0  0  0  0  0  0  0  0  0  0
   -3.1663   -0.3324    1.3737 H   0  0  0  0  0  0  0  0  0  0  0  0
  1  2  2  0  0  0  0
  1  6  1  0  0  0  0
  1 22  1  0  0  0  0
  2  3  1  0  0  0  0
  2 23  1  0  0  0  0
  3  4  2  0  0  0  0
  3 21  1  0  0  0  0
  4  5  1  0  0  0  0
  4 17  1  0  0  0  0
  5  6  2  0  0  0  0
  5 24  1  0  0  0  0
  6  7  1  0  0  0  0
  7  8  2  0  0  0  0
  7  9  1  0  0  0  0
  9 10  1  0  0  0  0
  9 25  1  0  0  0  0
 10 11  1  0  0  0  0
 10 26  1  0  0  0  0
 10 27  1  0  0  0  0
 11 12  1  0  0  0  0
 11 28  1  0  0  0  0
 11 29  1  0  0  0  0
 12 13  1  0  0  0  0
 13 14  1  0  0  0  0
 13 30  1  0  0  0  0
 13 31  1  0  0  0  0
 14 15  2  0  0  0  0
 14 16  1  0  0  0  0
 17 18  1  0  0  0  0
 17 32  1  0  0  0  0
 18 19  2  0  0  0  0
 18 20  1  0  0  0  0
 20 21  1  0  0  0  0
 20 33  1  0  0  0  0
 20 34  1  0  0  0  0
M  CHG  1  16  -1
M  END
$$$$

 OpenBabel06051916343D

 46 46  0  0  0  0  0  0  0  0999 V2000
    6.4101   -0.8480   -1.5025 C   0  0  0  0  0  0  0  0  0  0  0  0
    6.7060   -1.7393   -0.2938 C   0  0  0  0  0  0  0  0  0  0  0  0
    6.9641   -3.1668   -0.8252 C   0  0  0  0  0  0  0  0  0  0  0  0
    7.9613   -1.2735    0.4441 C   0  0  0  0  0  0  0  0  0  0  0  0
    5.5346   -1.8074    0.6160 N   0  0  0  0  0  0  0  0  0  0  0  0
    4.8469   -0.4956    1.4240 S   0  0  0  0  0  0  0  0  0  0  0  0
    5.0957    0.7223    0.6694 O   0  0  0  0  0  0  0  0  0  0  0  0
    3.5181   -0.8976    1.7780 O   0  0  0  0  0  0  0  0  0  0  0  0
    5.7780   -0.3965    2.9282 C   0  0  0  0  0  0  0  0  0  0  0  0
    6.4906    0.7677    3.2456 C   0  0  0  0  0  0  0  0  0  0  0  0
    7.2987    0.7988    4.3827 C   0  0  0  0  0  0  0  0  0  0  0  0
    7.4071   -0.3310    5.1863 C   0  0  0  0  0  0  0  0  0  0  0  0
    6.6770   -1.4808    4.8690 C   0  0  0  0  0  0  0  0  0  0  0  0
    5.8259   -1.5083    3.7612 C   0  0  0  0  0  0  0  0  0  0  0  0
    6.7746   -2.6828    5.7109 C   0  0  0  0  0  0  0  0  0  0  0  0
    5.7708   -3.3703    5.8375 O   0  0  0  0  0  0  0  0  0  0  0  0
    8.0014   -2.9377    6.2783 N   0  0  0  0  0  0  0  0  0  0  0  0
    8.2516   -4.0917    7.1214 C   0  0  0  0  0  0  0  0  0  0  0  0
    8.7866   -5.2971    6.3348 C   0  0  0  0  0  0  0  0  0  0  0  0
    9.9929   -5.3525    6.0696 O   0  0  0  0  0  0  0  0  0  0  0  0
    7.8900   -6.2666    5.9016 N   0  0  0  0  0  0  0  0  0  0  0  0
    6.4554   -6.2612    6.1386 C   0  0  0  0  0  0  0  0  0  0  0  0
    8.3982   -7.4830    5.2977 C   0  0  0  0  0  0  0  0  0  0  0  0
    7.2162   -0.9090   -2.2421 H   0  0  0  0  0  0  0  0  0  0  0  0
    6.3243    0.2063   -1.2337 H   0  0  0  0  0  0  0  0  0  0  0  0
    5.4765   -1.1454   -1.9933 H   0  0  0  0  0  0  0  0  0  0  0  0
    7.8627   -3.1960   -1.4541 H   0  0  0  0  0  0  0  0  0  0  0  0
    6.1261   -3.5235   -1.4362 H   0  0  0  0  0  0  0  0  0  0  0  0
    7.1040   -3.8864   -0.0107 H   0  0  0  0  0  0  0  0  0  0  0  0
    8.8137   -1.2060   -0.2425 H   0  0  0  0  0  0  0  0  0  0  0  0
    8.2370   -1.9703    1.2444 H   0  0  0  0  0  0  0  0  0  0  0  0
    7.8317   -0.2846    0.8892 H   0  0  0  0  0  0  0  0  0  0  0  0
    4.8274   -2.5130    0.4105 H   0  0  0  0  0  0  0  0  0  0  0  0
    6.4343    1.6455    2.6072 H   0  0  0  0  0  0  0  0  0  0  0  0
    7.8575    1.6960    4.6352 H   0  0  0  0  0  0  0  0  0  0  0  0
    8.0426   -0.3020    6.0670 H   0  0  0  0  0  0  0  0  0  0  0  0
    5.2301   -2.3928    3.5386 H   0  0  0  0  0  0  0  0  0  0  0  0
    8.8105   -2.4014    5.9905 H   0  0  0  0  0  0  0  0  0  0  0  0
    7.3712   -4.3437    7.7112 H   0  0  0  0  0  0  0  0  0  0  0  0
    9.0287   -3.7970    7.8378 H   0  0  0  0  0  0  0  0  0  0  0  0
    6.0863   -5.3272    6.5269 H   0  0  0  0  0  0  0  0  0  0  0  0
    6.2197   -7.0184    6.8880 H   0  0  0  0  0  0  0  0  0  0  0  0
    5.9370   -6.4805    5.1998 H   0  0  0  0  0  0  0  0  0  0  0  0
    9.4594   -7.4189    5.0498 H   0  0  0  0  0  0  0  0  0  0  0  0
    7.8293   -7.6947    4.3874 H   0  0  0  0  0  0  0  0  0  0  0  0
    8.2491   -8.2968    6.0143 H   0  0  0  0  0  0  0  0  0  0  0  0
  1  2  1  0  0  0  0
  1 24  1  0  0  0  0
  1 25  1  0  0  0  0
  1 26  1  0  0  0  0
  2  3  1  0  0  0  0
  2  4  1  0  0  0  0
  2  5  1  0  0  0  0
  3 27  1  0  0  0  0
  3 28  1  0  0  0  0
  3 29  1  0  0  0  0
  4 30  1  0  0  0  0
  4 31  1  0  0  0  0
  4 32  1  0  0  0  0
  5  6  1  0  0  0  0
  5 33  1  0  0  0  0
  6  7  2  0  0  0  0
  6  8  2  0  0  0  0
  6  9  1  0  0  0  0
  9 10  2  0  0  0  0
  9 14  1  0  0  0  0
 10 11  1  0  0  0  0
 10 34  1  0  0  0  0
 11 12  2  0  0  0  0
 11 35  1  0  0  0  0
 12 13  1  0  0  0  0
 12 36  1  0  0  0  0
 13 14  2  0  0  0  0
 13 15  1  0  0  0  0
 14 37  1  0  0  0  0
 15 16  2  0  0  0  0
 15 17  1  0  0  0  0
 17 18  1  0  0  0  0
 17 38  1  0  0  0  0
 18 19  1  0  0  0  0
 18 39  1  0  0  0  0
 18 40  1  0  0  0  0
 19 20  2  0  0  0  0
 19 21  1  0  0  0  0
 21 22  1  0  0  0  0
 21 23  1  0  0  0  0
 22 41  1  0  0  0  0
 22 42  1  0  0  0  0
 22 43  1  0  0  0  0
 23 44  1  0  0  0  0
 23 45  1  0  0  0  0
 23 46  1  0  0  0  0
M  END
$$$$

 OpenBabel06051916343D

 52 53  0  0  1  0  0  0  0  0999 V2000
    9.5226   -4.6414    6.2151 C   0  0  0  0  0  0  0  0  0  0  0  0
    8.8110   -3.6670    5.4570 O   0  0  0  0  0  0  0  0  0  0  0  0
    8.9367   -3.9346    4.0623 C   0  0  0  0  0  0  0  0  0  0  0  0
    8.1109   -2.9447    3.2385 C   0  0  0  0  0  0  0  0  0  0  0  0
    8.2482   -3.1511    1.8258 O   0  0  0  0  0  0  0  0  0  0  0  0
    7.7301   -4.4199    1.4016 C   0  0  0  0  0  0  0  0  0  0  0  0
    7.8666   -4.5751   -0.1105 C   0  0  0  0  0  0  0  0  0  0  0  0
    9.2451   -4.4747   -0.5660 N   0  0  0  0  0  0  0  0  0  0  0  0
   10.1074   -5.5569   -0.5451 C   0  0  0  0  0  0  0  0  0  0  0  0
    9.7676   -6.6930   -0.2730 O   0  0  0  0  0  0  0  0  0  0  0  0
   11.5176   -5.2354   -0.9261 C   0  0  0  0  0  0  0  0  0  0  0  0
   12.2708   -6.2378   -1.5502 C   0  0  0  0  0  0  0  0  0  0  0  0
   13.6137   -6.0010   -1.8974 C   0  0  0  0  0  0  0  0  0  0  0  0
   14.2555   -4.7807   -1.6244 C   0  0  0  0  0  0  0  0  0  0  0  0
   13.4587   -3.7818   -1.0320 C   0  0  0  0  0  0  0  0  0  0  0  0
   12.1206   -4.0107   -0.6743 C   0  0  0  0  0  0  0  0  0  0  0  0
   15.6090   -4.5269   -1.9586 N   0  0  0  0  0  0  0  0  0  0  0  0
   16.3344   -5.6247   -2.6317 C   0  0  0  0  0  0  0  0  0  0  0  0
   17.6480   -5.1271   -3.2236 C   0  0  0  0  0  0  0  0  0  0  0  0
   18.5090   -4.4195   -2.1831 C   0  0  0  0  0  0  0  0  0  0  0  0
   17.7409   -3.3793   -1.3615 C   0  0  2  0  0  0  0  0  0  0  0  0
   18.3542   -3.1481   -0.4781 H   0  0  0  0  0  0  0  0  0  0  0  0
   16.3952   -3.9059   -0.8591 C   0  0  0  0  0  0  0  0  0  0  0  0
   17.5834   -2.0504   -2.0871 C   0  0  0  0  0  0  0  0  0  0  0  0
   18.0115   -0.9934   -1.6244 O   0  0  0  0  0  0  0  0  0  0  0  0
   16.9524   -2.0672   -3.2919 N   0  0  0  0  0  0  0  0  0  0  0  0
    9.5009   -4.3472    7.2667 H   0  0  0  0  0  0  0  0  0  0  0  0
   10.5649   -4.6966    5.8854 H   0  0  0  0  0  0  0  0  0  0  0  0
    9.0488   -5.6239    6.1151 H   0  0  0  0  0  0  0  0  0  0  0  0
    8.6000   -4.9592    3.8789 H   0  0  0  0  0  0  0  0  0  0  0  0
    9.9888   -3.8673    3.7615 H   0  0  0  0  0  0  0  0  0  0  0  0
    8.4493   -1.9242    3.4556 H   0  0  0  0  0  0  0  0  0  0  0  0
    7.0517   -2.9777    3.5210 H   0  0  0  0  0  0  0  0  0  0  0  0
    6.6755   -4.4901    1.6894 H   0  0  0  0  0  0  0  0  0  0  0  0
    8.2904   -5.2287    1.8765 H   0  0  0  0  0  0  0  0  0  0  0  0
    7.3164   -3.7787   -0.6273 H   0  0  0  0  0  0  0  0  0  0  0  0
    7.4643   -5.5444   -0.4168 H   0  0  0  0  0  0  0  0  0  0  0  0
    9.5871   -3.5389   -0.7224 H   0  0  0  0  0  0  0  0  0  0  0  0
   11.8269   -7.2045   -1.7767 H   0  0  0  0  0  0  0  0  0  0  0  0
   14.1367   -6.8256   -2.3709 H   0  0  0  0  0  0  0  0  0  0  0  0
   13.8599   -2.7897   -0.8420 H   0  0  0  0  0  0  0  0  0  0  0  0
   11.5782   -3.2122   -0.1729 H   0  0  0  0  0  0  0  0  0  0  0  0
   15.7506   -6.0223   -3.4691 H   0  0  0  0  0  0  0  0  0  0  0  0
   16.5327   -6.4378   -1.9212 H   0  0  0  0  0  0  0  0  0  0  0  0
   17.4439   -4.4620   -4.0690 H   0  0  0  0  0  0  0  0  0  0  0  0
   18.2017   -5.9718   -3.6490 H   0  0  0  0  0  0  0  0  0  0  0  0
   19.3734   -3.9589   -2.6749 H   0  0  0  0  0  0  0  0  0  0  0  0
   18.9029   -5.1801   -1.4965 H   0  0  0  0  0  0  0  0  0  0  0  0
   15.8666   -3.0792   -0.3728 H   0  0  0  0  0  0  0  0  0  0  0  0
   16.5729   -4.6643   -0.0828 H   0  0  0  0  0  0  0  0  0  0  0  0
   16.7888   -1.1822   -3.7524 H   0  0  0  0  0  0  0  0  0  0  0  0
   16.3417   -2.8429   -3.5344 H   0  0  0  0  0  0  0  0  0  0  0  0
  1  2  1  0  0  0  0
  1 27  1  0  0  0  0
  1 28  1  0  0  0  0
  1 29  1  0  0  0  0
  2  3  1  0  0  0  0
  3  4  1  0  0  0  0
  3 30  1  0  0  0  0
  3 31  1  0  0  0  0
  4  5  1  0  0  0  0
  4 32  1  0  0  0  0
  4 33  1  0  0  0  0
  5  6  1  0  0  0  0
  6  7  1  0  0  0  0
  6 34  1  0  0  0  0
  6 35  1  0  0  0  0
  7  8  1  0  0  0  0
  7 36  1  0  0  0  0
  7 37  1  0  0  0  0
  8  9  1  0  0  0  0
  8 38  1  0  0  0  0
  9 10  2  0  0  0  0
  9 11  1  0  0  0  0
 11 12  2  0  0  0  0
 11 16  1  0  0  0  0
 12 13  1  0  0  0  0
 12 39  1  0  0  0  0
 13 14  2  0  0  0  0
 13 40  1  0  0  0  0
 14 15  1  0  0  0  0
 14 17  1  0  0  0  0
 15 16  2  0  0  0  0
 15 41  1  0  0  0  0
 16 42  1  0  0  0  0
 17 18  1  0  0  0  0
 17 23  1  0  0  0  0
 18 19  1  0  0  0  0
 18 43  1  0  0  0  0
 18 44  1  0  0  0  0
 19 20  1  0  0  0  0
 19 45  1  0  0  0  0
 19 46  1  0  0  0  0
 20 21  1  0  0  0  0
 20 47  1  0  0  0  0
 20 48  1  0  0  0  0
 21 23  1  0  0  0  0
 21 24  1  0  0  0  0
 21 22  1  1  0  0  0
 23 49  1  0  0  0  0
 23 50  1  0  0  0  0
 24 25  2  0  0  0  0
 24 26  1  0  0  0  0
 26 51  1  0  0  0  0
 26 52  1  0  0  0  0
M  END
$$$$

 OpenBabel06051916343D

 42 43  0  0  0  0  0  0  0  0999 V2000
    1.0942    2.0507    3.1754 C   0  0  0  0  0  0  0  0  0  0  0  0
    2.6302    2.0854    3.1100 C   0  0  0  0  0  0  0  0  0  0  0  0
    3.1514    3.0892    4.1488 C   0  0  0  0  0  0  0  0  0  0  0  0
    3.1509    0.7424    3.4106 C   0  0  0  0  0  0  0  0  0  0  0  0
    3.5823   -0.3076    3.6728 N   0  0  0  0  0  0  0  0  0  0  0  0
    3.0778    2.4942    1.6970 C   0  0  0  0  0  0  0  0  0  0  0  0
    2.2722    2.7877    0.8135 O   0  0  0  0  0  0  0  0  0  0  0  0
    4.4372    2.5569    1.4682 N   0  0  0  0  0  0  0  0  0  0  0  0
    4.9400    2.9190    0.1585 C   0  0  0  0  0  0  0  0  0  0  0  0
    6.4378    2.8038    0.0947 C   0  0  0  0  0  0  0  0  0  0  0  0
    7.0577    1.6120   -0.3005 C   0  0  0  0  0  0  0  0  0  0  0  0
    8.4559    1.4972   -0.2921 C   0  0  0  0  0  0  0  0  0  0  0  0
    9.2678    2.5590    0.1313 C   0  0  0  0  0  0  0  0  0  0  0  0
    8.6325    3.7559    0.4900 C   0  0  0  0  0  0  0  0  0  0  0  0
    7.2414    3.8796    0.4771 C   0  0  0  0  0  0  0  0  0  0  0  0
   10.6660    2.3873    0.2023 N   0  0  0  0  0  0  0  0  0  0  0  0
   11.3452    3.1919    1.2339 C   0  0  0  0  0  0  0  0  0  0  0  0
   12.8009    2.7431    1.3430 C   0  0  0  0  0  0  0  0  0  0  0  0
   13.4817    2.8260    0.0692 N   0  0  0  0  0  0  0  0  0  0  0  0
   12.8504    2.5065   -1.1091 C   0  0  0  0  0  0  0  0  0  0  0  0
   13.5292    2.3374   -2.1228 O   0  0  0  0  0  0  0  0  0  0  0  0
   11.3052    2.4869   -1.1412 C   0  0  0  0  0  0  0  0  0  0  0  0
    0.7385    1.7513    4.1682 H   0  0  0  0  0  0  0  0  0  0  0  0
    0.6811    1.3376    2.4512 H   0  0  0  0  0  0  0  0  0  0  0  0
    0.6644    3.0334    2.9472 H   0  0  0  0  0  0  0  0  0  0  0  0
    2.8438    2.8063    5.1633 H   0  0  0  0  0  0  0  0  0  0  0  0
    2.7689    4.0973    3.9516 H   0  0  0  0  0  0  0  0  0  0  0  0
    4.2458    3.1499    4.1517 H   0  0  0  0  0  0  0  0  0  0  0  0
    5.1025    2.2136    2.1513 H   0  0  0  0  0  0  0  0  0  0  0  0
    4.6249    3.9485   -0.0515 H   0  0  0  0  0  0  0  0  0  0  0  0
    4.4675    2.2812   -0.5971 H   0  0  0  0  0  0  0  0  0  0  0  0
    6.4570    0.7575   -0.6072 H   0  0  0  0  0  0  0  0  0  0  0  0
    8.9076    0.5509   -0.5832 H   0  0  0  0  0  0  0  0  0  0  0  0
    9.2085    4.6268    0.7841 H   0  0  0  0  0  0  0  0  0  0  0  0
    6.7957    4.8261    0.7739 H   0  0  0  0  0  0  0  0  0  0  0  0
   10.8582    3.0606    2.2078 H   0  0  0  0  0  0  0  0  0  0  0  0
   11.3270    4.2563    0.9689 H   0  0  0  0  0  0  0  0  0  0  0  0
   12.8633    1.7030    1.6799 H   0  0  0  0  0  0  0  0  0  0  0  0
   13.3426    3.3740    2.0547 H   0  0  0  0  0  0  0  0  0  0  0  0
   14.4916    2.7683    0.0335 H   0  0  0  0  0  0  0  0  0  0  0  0
   11.0081    1.6295   -1.7561 H   0  0  0  0  0  0  0  0  0  0  0  0
   10.9938    3.4142   -1.6389 H   0  0  0  0  0  0  0  0  0  0  0  0
  1  2  1  0  0  0  0
  1 23  1  0  0  0  0
  1 24  1  0  0  0  0
  1 25  1  0  0  0  0
  2  3  1  0  0  0  0
  2  4  1  0  0  0  0
  2  6  1  0  0  0  0
  3 26  1  0  0  0  0
  3 27  1  0  0  0  0
  3 28  1  0  0  0  0
  4  5  3  0  0  0  0
  6  7  2  0  0  0  0
  6  8  1  0  0  0  0
  8  9  1  0  0  0  0
  8 29  1  0  0  0  0
  9 10  1  0  0  0  0
  9 30  1  0  0  0  0
  9 31  1  0  0  0  0
 10 11  2  0  0  0  0
 10 15  1  0  0  0  0
 11 12  1  0  0  0  0
 11 32  1  0  0  0  0
 12 13  2  0  0  0  0
 12 33  1  0  0  0  0
 13 14  1  0  0  0  0
 13 16  1  0  0  0  0
 14 15  2  0  0  0  0
 14 34  1  0  0  0  0
 15 35  1  0  0  0  0
 16 17  1  0  0  0  0
 16 22  1  0  0  0  0
 17 18  1  0  0  0  0
 17 36  1  0  0  0  0
 17 37  1  0  0  0  0
 18 19  1  0  0  0  0
 18 38  1  0  0  0  0
 18 39  1  0  0  0  0
 19 20  1  0  0  0  0
 19 40  1  0  0  0  0
 20 21  2  0  0  0  0
 20 22  1  0  0  0  0
 22 41  1  0  0  0  0
 22 42  1  0  0  0  0
M  END
$$$$

 OpenBabel06051916343D

 46 47  0  0  0  0  0  0  0  0999 V2000
    6.2228   -0.9212    3.8175 C   0  0  0  0  0  0  0  0  0  0  0  0
    6.6625   -0.9170    2.3529 C   0  0  0  0  0  0  0  0  0  0  0  0
    7.8327   -1.8758    2.1725 C   0  0  0  0  0  0  0  0  0  0  0  0
    5.4995   -1.3077    1.5349 N   0  0  0  0  0  0  0  0  0  0  0  0
    5.6137   -1.3983   -0.1416 S   0  0  0  0  0  0  0  0  0  0  0  0
    4.2685   -1.2641   -0.6454 O   0  0  0  0  0  0  0  0  0  0  0  0
    6.6835   -0.5159   -0.5706 O   0  0  0  0  0  0  0  0  0  0  0  0
    6.1033   -3.0859   -0.4030 C   0  0  0  0  0  0  0  0  0  0  0  0
    7.3156   -3.3620   -1.0375 C   0  0  0  0  0  0  0  0  0  0  0  0
    7.6886   -4.6880   -1.2406 C   0  0  0  0  0  0  0  0  0  0  0  0
    6.8535   -5.7279   -0.8132 C   0  0  0  0  0  0  0  0  0  0  0  0
    5.6354   -5.4609   -0.1622 C   0  0  0  0  0  0  0  0  0  0  0  0
    5.2645   -4.1216    0.0354 C   0  0  0  0  0  0  0  0  0  0  0  0
    4.7682   -6.5919    0.3542 C   0  0  0  0  0  0  0  0  0  0  0  0
    5.1437   -6.9553    1.7101 N   0  0  0  0  0  0  0  0  0  0  0  0
    4.5684   -8.0204    2.3604 C   0  0  0  0  0  0  0  0  0  0  0  0
    3.6877   -8.7049    1.8476 O   0  0  0  0  0  0  0  0  0  0  0  0
    5.0684   -8.2643    3.6389 N   0  0  0  0  0  0  0  0  0  0  0  0
    6.1379   -7.4826    4.2712 C   0  0  0  0  0  0  0  0  0  0  0  0
    6.1705   -7.6505    5.7916 C   0  0  0  0  0  0  0  0  0  0  0  0
    6.2496   -9.0359    6.1424 O   0  0  0  0  0  0  0  0  0  0  0  0
    5.0666   -9.7138    5.6990 C   0  0  0  0  0  0  0  0  0  0  0  0
    4.8868   -9.6180    4.1783 C   0  0  0  0  0  0  0  0  0  0  0  0
    7.0612   -0.6819    4.4803 H   0  0  0  0  0  0  0  0  0  0  0  0
    5.8248   -1.8997    4.1096 H   0  0  0  0  0  0  0  0  0  0  0  0
    5.4361   -0.1789    3.9906 H   0  0  0  0  0  0  0  0  0  0  0  0
    6.9641    0.1042    2.0929 H   0  0  0  0  0  0  0  0  0  0  0  0
    7.5152   -2.9184    2.2806 H   0  0  0  0  0  0  0  0  0  0  0  0
    8.6187   -1.6826    2.9098 H   0  0  0  0  0  0  0  0  0  0  0  0
    8.2915   -1.7601    1.1868 H   0  0  0  0  0  0  0  0  0  0  0  0
    4.5865   -0.9464    1.8131 H   0  0  0  0  0  0  0  0  0  0  0  0
    7.9695   -2.5579   -1.3695 H   0  0  0  0  0  0  0  0  0  0  0  0
    8.6310   -4.9121   -1.7362 H   0  0  0  0  0  0  0  0  0  0  0  0
    7.1619   -6.7542   -1.0053 H   0  0  0  0  0  0  0  0  0  0  0  0
    4.3223   -3.8821    0.5253 H   0  0  0  0  0  0  0  0  0  0  0  0
    4.8560   -7.4678   -0.3007 H   0  0  0  0  0  0  0  0  0  0  0  0
    3.7114   -6.3002    0.3543 H   0  0  0  0  0  0  0  0  0  0  0  0
    6.1042   -6.7793    1.9476 H   0  0  0  0  0  0  0  0  0  0  0  0
    6.0241   -6.4219    4.0269 H   0  0  0  0  0  0  0  0  0  0  0  0
    7.0793   -7.8419    3.8397 H   0  0  0  0  0  0  0  0  0  0  0  0
    5.2841   -7.2081    6.2625 H   0  0  0  0  0  0  0  0  0  0  0  0
    7.0508   -7.1481    6.2052 H   0  0  0  0  0  0  0  0  0  0  0  0
    4.2017   -9.2982    6.2287 H   0  0  0  0  0  0  0  0  0  0  0  0
    5.1589  -10.7644    5.9945 H   0  0  0  0  0  0  0  0  0  0  0  0
    3.9063  -10.0170    3.8976 H   0  0  0  0  0  0  0  0  0  0  0  0
    5.6486  -10.2376    3.6899 H   0  0  0  0  0  0  0  0  0  0  0  0
  1  2  1  0  0  0  0
  1 24  1  0  0  0  0
  1 25  1  0  0  0  0
  1 26  1  0  0  0  0
  2  3  1  0  0  0  0
  2  4  1  0  0  0  0
  2 27  1  0  0  0  0
  3 28  1  0  0  0  0
  3 29  1  0  0  0  0
  3 30  1  0  0  0  0
  4  5  1  0  0  0  0
  4 31  1  0  0  0  0
  5  6  2  0  0  0  0
  5  7  2  0  0  0  0
  5  8  1  0  0  0  0
  8  9  2  0  0  0  0
  8 13  1  0  0  0  0
  9 10  1  0  0  0  0
  9 32  1  0  0  0  0
 10 11  2  0  0  0  0
 10 33  1  0  0  0  0
 11 12  1  0  0  0  0
 11 34  1  0  0  0  0
 12 13  2  0  0  0  0
 12 14  1  0  0  0  0
 13 35  1  0  0  0  0
 14 15  1  0  0  0  0
 14 36  1  0  0  0  0
 14 37  1  0  0  0  0
 15 16  1  0  0  0  0
 15 38  1  0  0  0  0
 16 17  2  0  0  0  0
 16 18  1  0  0  0  0
 18 19  1  0  0  0  0
 18 23  1  0  0  0  0
 19 20  1  0  0  0  0
 19 39  1  0  0  0  0
 19 40  1  0  0  0  0
 20 21  1  0  0  0  0
 20 41  1  0  0  0  0
 20 42  1  0  0  0  0
 21 22  1  0  0  0  0
 22 23  1  0  0  0  0
 22 43  1  0  0  0  0
 22 44  1  0  0  0  0
 23 45  1  0  0  0  0
 23 46  1  0  0  0  0
M  END
$$$$
