@<TRIPOS>MOLECULE
*****
 61 63 0 0 0
SMALL
GASTEIGER

@<TRIPOS>ATOM
      1 C           0.1383    3.7268    6.7981 C.3     1  LIG1       -0.0606
      2 C           0.3844    2.7524    5.6719 C.3     1  LIG1       -0.0232
      3 C           0.5707    3.6768    4.5206 C.3     1  LIG1       -0.0606
      4 C           1.5978    1.8090    5.9058 C.3     1  LIG1        0.0500
      5 O           2.7624    2.4970    6.3601 O.3     1  LIG1       -0.3779
      6 C           3.8850    1.6405    6.5959 C.3     1  LIG1        0.0647
      7 C           5.1785    2.4101    7.0322 C.3     1  LIG1        0.0494
      8 C           5.8423    3.3479    5.9128 C.3     1  LIG1        0.0303
      9 N           5.1066    4.5513    5.3821 N.pl3   1  LIG1       -0.3240
     10 C           5.4562    5.8557    6.0956 C.3     1  LIG1        0.0373
     11 C           4.8336    7.2293    5.7617 C.ar    1  LIG1       -0.0302
     12 C           5.5786    8.3986    5.8697 C.ar    1  LIG1       -0.0571
     13 C           5.1935    9.5638    5.1954 C.ar    1  LIG1       -0.0615
     14 C           4.1260    9.5278    4.3098 C.ar    1  LIG1       -0.0617
     15 C           3.2875    8.4464    4.3784 C.ar    1  LIG1       -0.0615
     16 C           3.5268    7.4139    5.3063 C.ar    1  LIG1       -0.0571
     17 C           4.3039    4.4086    4.2485 C.ar    1  LIG1        0.0300
     18 C           3.7886    5.4023    3.4991 C.ar    1  LIG1       -0.0407
     19 C           2.5758    5.4244    2.8230 C.ar    1  LIG1       -0.0600
     20 C           2.1112    4.1794    2.3668 C.ar    1  LIG1       -0.0616
     21 C           2.7766    3.0738    2.8390 C.ar    1  LIG1       -0.0600
     22 C           3.8218    3.1520    3.7858 C.ar    1  LIG1       -0.0407
     23 N           5.0867    2.9810    8.4098 N.3     1  LIG1       -0.2957
     24 C           4.7976    1.9685    9.4537 C.3     1  LIG1       -0.0007
     25 C           3.8583    2.6484   10.4343 C.3     1  LIG1       -0.0390
     26 C           3.0391    3.5481    9.5404 C.3     1  LIG1       -0.0390
     27 C           4.0475    4.0150    8.5141 C.3     1  LIG1       -0.0007
     28 H          -0.1398    3.1932    7.6974 H       1  LIG1        0.0233
     29 H          -0.6668    4.4179    6.5127 H       1  LIG1        0.0233
     30 H           1.0265    4.3477    6.9759 H       1  LIG1        0.0233
     31 H          -0.4926    2.1448    5.4289 H       1  LIG1        0.0318
     32 H           1.5438    4.1292    4.7016 H       1  LIG1        0.0233
     33 H          -0.1038    4.5323    4.4015 H       1  LIG1        0.0233
     34 H           0.4508    3.0692    3.6255 H       1  LIG1        0.0233
     35 H           1.8557    1.2616    4.9901 H       1  LIG1        0.0562
     36 H           1.3165    1.0796    6.6673 H       1  LIG1        0.0562
     37 H           4.1179    1.0151    5.7280 H       1  LIG1        0.0576
     38 H           3.5771    0.9176    7.3515 H       1  LIG1        0.0576
     39 H           5.9447    1.6204    7.1383 H       1  LIG1        0.0501
     40 H           6.1352    2.7032    5.0667 H       1  LIG1        0.0480
     41 H           6.8238    3.6780    6.2948 H       1  LIG1        0.0480
     42 H           6.5447    5.9841    5.9407 H       1  LIG1        0.0513
     43 H           5.3371    5.7278    7.1624 H       1  LIG1        0.0513
     44 H           6.4973    8.4126    6.4626 H       1  LIG1        0.0621
     45 H           5.7645   10.4889    5.3097 H       1  LIG1        0.0618
     46 H           3.9328   10.3412    3.6145 H       1  LIG1        0.0618
     47 H           2.5028    8.3348    3.6268 H       1  LIG1        0.0618
     48 H           2.8098    6.6064    5.3931 H       1  LIG1        0.0621
     49 H           4.3301    6.3550    3.4887 H       1  LIG1        0.0636
     50 H           1.9188    6.2689    2.8106 H       1  LIG1        0.0618
     51 H           1.1116    4.1390    1.9424 H       1  LIG1        0.0618
     52 H           2.2900    2.0807    2.7497 H       1  LIG1        0.0618
     53 H           4.1331    2.2545    4.2387 H       1  LIG1        0.0636
     54 H           5.7096    1.6118    9.9427 H       1  LIG1        0.0427
     55 H           4.2895    1.0730    9.0882 H       1  LIG1        0.0427
     56 H           4.4277    3.2419   11.1568 H       1  LIG1        0.0278
     57 H           3.2275    1.9399   10.9803 H       1  LIG1        0.0278
     58 H           2.5953    4.3878   10.0810 H       1  LIG1        0.0278
     59 H           2.2346    2.9801    9.0591 H       1  LIG1        0.0278
     60 H           4.5248    4.9241    8.8907 H       1  LIG1        0.0427
     61 H           3.5572    4.2791    7.5768 H       1  LIG1        0.0427
@<TRIPOS>BOND
     1     1     2    1
     2     1    28    1
     3     1    29    1
     4     1    30    1
     5     2     3    1
     6     2     4    1
     7     2    31    1
     8     3    32    1
     9     3    33    1
    10     3    34    1
    11     4     5    1
    12     4    35    1
    13     4    36    1
    14     5     6    1
    15     6     7    1
    16     6    37    1
    17     6    38    1
    18     7     8    1
    19     7    23    1
    20     7    39    1
    21     8     9    1
    22     8    40    1
    23     8    41    1
    24     9    10    1
    25     9    17    1
    26    10    11    1
    27    10    42    1
    28    10    43    1
    29    11    12   ar
    30    11    16   ar
    31    12    13   ar
    32    12    44    1
    33    13    14   ar
    34    13    45    1
    35    14    15   ar
    36    14    46    1
    37    15    16   ar
    38    15    47    1
    39    16    48    1
    40    17    18   ar
    41    17    22   ar
    42    18    19   ar
    43    18    49    1
    44    19    20   ar
    45    19    50    1
    46    20    21   ar
    47    20    51    1
    48    21    22   ar
    49    21    52    1
    50    22    53    1
    51    23    24    1
    52    23    27    1
    53    24    25    1
    54    24    54    1
    55    24    55    1
    56    25    26    1
    57    25    56    1
    58    25    57    1
    59    26    27    1
    60    26    58    1
    61    26    59    1
    62    27    60    1
    63    27    61    1
