@<TRIPOS>MOLECULE
*****
 52 53 0 0 0
SMALL
GASTEIGER

@<TRIPOS>ATOM
      1 C           9.5226   -4.6414    6.2151 C.3     1  LIG1        0.0365
      2 O           8.8110   -3.6670    5.4570 O.3     1  LIG1       -0.3807
      3 C           8.9367   -3.9346    4.0623 C.3     1  LIG1        0.0706
      4 C           8.1109   -2.9447    3.2385 C.3     1  LIG1        0.0711
      5 O           8.2482   -3.1511    1.8258 O.3     1  LIG1       -0.3760
      6 C           7.7301   -4.4199    1.4016 C.3     1  LIG1        0.0633
      7 C           7.8666   -4.5751   -0.1105 C.3     1  LIG1        0.0353
      8 N           9.2451   -4.4747   -0.5660 N.am    1  LIG1       -0.3092
      9 C          10.1074   -5.5569   -0.5451 C.2     1  LIG1        0.2441
     10 O           9.7676   -6.6930   -0.2730 O.2     1  LIG1       -0.2702
     11 C          11.5176   -5.2354   -0.9261 C.ar    1  LIG1        0.0368
     12 C          12.2708   -6.2378   -1.5502 C.ar    1  LIG1       -0.0479
     13 C          13.6137   -6.0010   -1.8974 C.ar    1  LIG1       -0.0399
     14 C          14.2555   -4.7807   -1.6244 C.ar    1  LIG1        0.0297
     15 C          13.4587   -3.7818   -1.0320 C.ar    1  LIG1       -0.0399
     16 C          12.1206   -4.0107   -0.6743 C.ar    1  LIG1       -0.0479
     17 N          15.6090   -4.5269   -1.9586 N.pl3   1  LIG1       -0.3292
     18 C          16.3344   -5.6247   -2.6317 C.3     1  LIG1        0.0122
     19 C          17.6480   -5.1271   -3.2236 C.3     1  LIG1       -0.0365
     20 C          18.5090   -4.4195   -2.1831 C.3     1  LIG1       -0.0391
     21 C          17.7409   -3.3793   -1.3615 C.3     1  LIG1        0.0510
     22 H          18.3542   -3.1481   -0.4781 H       1  LIG1        0.0409
     23 C          16.3952   -3.9059   -0.8591 C.3     1  LIG1        0.0233
     24 C          17.5834   -2.0504   -2.0871 C.2     1  LIG1        0.2151
     25 O          18.0115   -0.9934   -1.6244 O.2     1  LIG1       -0.2757
     26 N          16.9524   -2.0672   -3.2919 N.am    1  LIG1       -0.3291
     27 H           9.5009   -4.3472    7.2667 H       1  LIG1        0.0524
     28 H          10.5649   -4.6966    5.8854 H       1  LIG1        0.0524
     29 H           9.0488   -5.6239    6.1151 H       1  LIG1        0.0524
     30 H           8.6000   -4.9592    3.8789 H       1  LIG1        0.0582
     31 H           9.9888   -3.8673    3.7615 H       1  LIG1        0.0582
     32 H           8.4493   -1.9242    3.4556 H       1  LIG1        0.0583
     33 H           7.0517   -2.9777    3.5210 H       1  LIG1        0.0583
     34 H           6.6755   -4.4901    1.6894 H       1  LIG1        0.0575
     35 H           8.2904   -5.2287    1.8765 H       1  LIG1        0.0575
     36 H           7.3164   -3.7787   -0.6273 H       1  LIG1        0.0485
     37 H           7.4643   -5.5444   -0.4168 H       1  LIG1        0.0485
     38 H           9.5871   -3.5389   -0.7224 H       1  LIG1        0.1491
     39 H          11.8269   -7.2045   -1.7767 H       1  LIG1        0.0626
     40 H          14.1367   -6.8256   -2.3709 H       1  LIG1        0.0636
     41 H          13.8599   -2.7897   -0.8420 H       1  LIG1        0.0636
     42 H          11.5782   -3.2122   -0.1729 H       1  LIG1        0.0626
     43 H          15.7506   -6.0223   -3.4691 H       1  LIG1        0.0464
     44 H          16.5327   -6.4378   -1.9212 H       1  LIG1        0.0464
     45 H          17.4439   -4.4620   -4.0690 H       1  LIG1        0.0281
     46 H          18.2017   -5.9718   -3.6490 H       1  LIG1        0.0281
     47 H          19.3734   -3.9589   -2.6749 H       1  LIG1        0.0273
     48 H          18.9029   -5.1801   -1.4965 H       1  LIG1        0.0273
     49 H          15.8666   -3.0792   -0.3728 H       1  LIG1        0.0471
     50 H          16.5729   -4.6643   -0.0828 H       1  LIG1        0.0471
     51 H          16.7888   -1.1822   -3.7524 H       1  LIG1        0.1449
     52 H          16.3417   -2.8429   -3.5344 H       1  LIG1        0.1449
@<TRIPOS>BOND
     1     1     2    1
     2     1    27    1
     3     1    28    1
     4     1    29    1
     5     2     3    1
     6     3     4    1
     7     3    30    1
     8     3    31    1
     9     4     5    1
    10     4    32    1
    11     4    33    1
    12     5     6    1
    13     6     7    1
    14     6    34    1
    15     6    35    1
    16     7     8    1
    17     7    36    1
    18     7    37    1
    19     8     9   am
    20     8    38    1
    21     9    10    2
    22     9    11    1
    23    11    12   ar
    24    11    16   ar
    25    12    13   ar
    26    12    39    1
    27    13    14   ar
    28    13    40    1
    29    14    15   ar
    30    14    17    1
    31    15    16   ar
    32    15    41    1
    33    16    42    1
    34    17    18    1
    35    17    23    1
    36    18    19    1
    37    18    43    1
    38    18    44    1
    39    19    20    1
    40    19    45    1
    41    19    46    1
    42    20    21    1
    43    20    47    1
    44    20    48    1
    45    21    23    1
    46    21    24    1
    47    21    22    1
    48    23    49    1
    49    23    50    1
    50    24    25    2
    51    24    26   am
    52    26    51    1
    53    26    52    1
